
---------- Begin Simulation Statistics ----------
final_tick                                36171975500                       # Number of ticks from beginning of simulation (restored from checkpoints and never reset)
host_inst_rate                                 198500                       # Simulator instruction rate (inst/s)
host_mem_usage                                4492092                       # Number of bytes of host memory used
host_op_rate                                   371221                       # Simulator op (including micro ops) rate (op/s)
host_seconds                                    99.39                       # Real time elapsed on the host
host_tick_rate                              363951138                       # Simulator tick rate (ticks/s)
sim_freq                                 1000000000000                       # Frequency of simulated ticks
sim_insts                                    19728308                       # Number of instructions simulated
sim_ops                                      36894550                       # Number of ops (including micro ops) simulated
sim_seconds                                  0.036172                       # Number of seconds simulated
sim_ticks                                 36171975500                       # Number of ticks simulated
system.cpu0.branchPred.BTBCorrect                   0                       # Number of correct BTB predictions (this stat may not work properly.
system.cpu0.branchPred.BTBHitPct                  nan                       # BTB Hit Percentage
system.cpu0.branchPred.BTBHits                      0                       # Number of BTB hits
system.cpu0.branchPred.BTBLookups                   0                       # Number of BTB lookups
system.cpu0.branchPred.RASInCorrect                 0                       # Number of incorrect RAS predictions.
system.cpu0.branchPred.condIncorrect               92                       # Number of conditional branches incorrect
system.cpu0.branchPred.condPredicted              285                       # Number of conditional branches predicted
system.cpu0.branchPred.indirectHits                 0                       # Number of indirect target hits.
system.cpu0.branchPred.indirectLookups             54                       # Number of indirect predictor lookups.
system.cpu0.branchPred.indirectMisses              54                       # Number of indirect misses.
system.cpu0.branchPred.lookups                    285                       # Number of BP lookups
system.cpu0.branchPred.usedRAS                      0                       # Number of times the RAS was used to get a target.
system.cpu0.branchPredindirectMispredicted           39                       # Number of mispredicted indirect branches.
system.cpu0.committedInsts                   10000000                       # Number of instructions committed
system.cpu0.committedOps                     20977542                       # Number of ops (including micro ops) committed
system.cpu0.cpi                              7.234395                       # CPI: cycles per instruction
system.cpu0.discardedOps                      5692595                       # Number of ops (including micro ops) which were discarded before commit
system.cpu0.dtb.rdAccesses                    2460967                       # TLB accesses on read requests
system.cpu0.dtb.rdMisses                        35071                       # TLB misses on read requests
system.cpu0.dtb.wrAccesses                    1493548                       # TLB accesses on write requests
system.cpu0.dtb.wrMisses                          535                       # TLB misses on write requests
system.cpu0.fetch2.amo_instructions                 0                       # Number of memory atomic instructions successfully decoded
system.cpu0.fetch2.fp_instructions                  0                       # Number of floating point instructions successfully decoded
system.cpu0.fetch2.int_instructions                29                       # Number of integer instructions successfully decoded
system.cpu0.fetch2.load_instructions                0                       # Number of memory load instructions successfully decoded
system.cpu0.fetch2.store_instructions               0                       # Number of memory store instructions successfully decoded
system.cpu0.fetch2.vec_instructions                 0                       # Number of SIMD instructions successfully decoded
system.cpu0.idleCycles                       31808143                       # Total number of cycles that the object has spent stopped
system.cpu0.ipc                              0.138229                       # IPC: instructions per cycle
system.cpu0.itb.rdAccesses                          0                       # TLB accesses on read requests
system.cpu0.itb.rdMisses                            0                       # TLB misses on read requests
system.cpu0.itb.wrAccesses                    5356262                       # TLB accesses on write requests
system.cpu0.itb.wrMisses                          617                       # TLB misses on write requests
system.cpu0.numCycles                        72343951                       # number of cpu cycles simulated
system.cpu0.numFetchSuspends                        0                       # Number of times Execute suspended instruction fetching
system.cpu0.numWorkItemsCompleted                   0                       # number of work items this cpu completed
system.cpu0.numWorkItemsStarted                     0                       # number of work items this cpu started
system.cpu0.op_class_0::No_OpClass             692868      3.30%      3.30% # Class of committed instruction
system.cpu0.op_class_0::IntAlu               16308207     77.74%     81.04% # Class of committed instruction
system.cpu0.op_class_0::IntMult                  2368      0.01%     81.06% # Class of committed instruction
system.cpu0.op_class_0::IntDiv                 162889      0.78%     81.83% # Class of committed instruction
system.cpu0.op_class_0::FloatAdd                25090      0.12%     81.95% # Class of committed instruction
system.cpu0.op_class_0::FloatCmp                    0      0.00%     81.95% # Class of committed instruction
system.cpu0.op_class_0::FloatCvt                 2096      0.01%     81.96% # Class of committed instruction
system.cpu0.op_class_0::FloatMult                   0      0.00%     81.96% # Class of committed instruction
system.cpu0.op_class_0::FloatMultAcc                0      0.00%     81.96% # Class of committed instruction
system.cpu0.op_class_0::FloatDiv                    0      0.00%     81.96% # Class of committed instruction
system.cpu0.op_class_0::FloatMisc                   0      0.00%     81.96% # Class of committed instruction
system.cpu0.op_class_0::FloatSqrt                   0      0.00%     81.96% # Class of committed instruction
system.cpu0.op_class_0::SimdAdd                 24906      0.12%     82.08% # Class of committed instruction
system.cpu0.op_class_0::SimdAddAcc                  0      0.00%     82.08% # Class of committed instruction
system.cpu0.op_class_0::SimdAlu                 86613      0.41%     82.49% # Class of committed instruction
system.cpu0.op_class_0::SimdCmp                  6936      0.03%     82.53% # Class of committed instruction
system.cpu0.op_class_0::SimdCvt                 95642      0.46%     82.98% # Class of committed instruction
system.cpu0.op_class_0::SimdMisc                89955      0.43%     83.41% # Class of committed instruction
system.cpu0.op_class_0::SimdMult                    0      0.00%     83.41% # Class of committed instruction
system.cpu0.op_class_0::SimdMultAcc                 0      0.00%     83.41% # Class of committed instruction
system.cpu0.op_class_0::SimdShift                6163      0.03%     83.44% # Class of committed instruction
system.cpu0.op_class_0::SimdShiftAcc                0      0.00%     83.44% # Class of committed instruction
system.cpu0.op_class_0::SimdDiv                     0      0.00%     83.44% # Class of committed instruction
system.cpu0.op_class_0::SimdSqrt                    0      0.00%     83.44% # Class of committed instruction
system.cpu0.op_class_0::SimdFloatAdd             1714      0.01%     83.45% # Class of committed instruction
system.cpu0.op_class_0::SimdFloatAlu                0      0.00%     83.45% # Class of committed instruction
system.cpu0.op_class_0::SimdFloatCmp                0      0.00%     83.45% # Class of committed instruction
system.cpu0.op_class_0::SimdFloatCvt             8287      0.04%     83.49% # Class of committed instruction
system.cpu0.op_class_0::SimdFloatDiv                0      0.00%     83.49% # Class of committed instruction
system.cpu0.op_class_0::SimdFloatMisc               0      0.00%     83.49% # Class of committed instruction
system.cpu0.op_class_0::SimdFloatMult              82      0.00%     83.49% # Class of committed instruction
system.cpu0.op_class_0::SimdFloatMultAcc            0      0.00%     83.49% # Class of committed instruction
system.cpu0.op_class_0::SimdFloatSqrt               0      0.00%     83.49% # Class of committed instruction
system.cpu0.op_class_0::SimdReduceAdd               0      0.00%     83.49% # Class of committed instruction
system.cpu0.op_class_0::SimdReduceAlu               0      0.00%     83.49% # Class of committed instruction
system.cpu0.op_class_0::SimdReduceCmp               0      0.00%     83.49% # Class of committed instruction
system.cpu0.op_class_0::SimdFloatReduceAdd            0      0.00%     83.49% # Class of committed instruction
system.cpu0.op_class_0::SimdFloatReduceCmp            0      0.00%     83.49% # Class of committed instruction
system.cpu0.op_class_0::SimdAes                     0      0.00%     83.49% # Class of committed instruction
system.cpu0.op_class_0::SimdAesMix                  0      0.00%     83.49% # Class of committed instruction
system.cpu0.op_class_0::SimdSha1Hash                0      0.00%     83.49% # Class of committed instruction
system.cpu0.op_class_0::SimdSha1Hash2               0      0.00%     83.49% # Class of committed instruction
system.cpu0.op_class_0::SimdSha256Hash              0      0.00%     83.49% # Class of committed instruction
system.cpu0.op_class_0::SimdSha256Hash2             0      0.00%     83.49% # Class of committed instruction
system.cpu0.op_class_0::SimdShaSigma2               0      0.00%     83.49% # Class of committed instruction
system.cpu0.op_class_0::SimdShaSigma3               0      0.00%     83.49% # Class of committed instruction
system.cpu0.op_class_0::SimdPredAlu                 0      0.00%     83.49% # Class of committed instruction
system.cpu0.op_class_0::MemRead               1890985      9.01%     92.50% # Class of committed instruction
system.cpu0.op_class_0::MemWrite              1365189      6.51%     99.01% # Class of committed instruction
system.cpu0.op_class_0::FloatMemRead           156640      0.75%     99.76% # Class of committed instruction
system.cpu0.op_class_0::FloatMemWrite           50912      0.24%    100.00% # Class of committed instruction
system.cpu0.op_class_0::IprAccess                   0      0.00%    100.00% # Class of committed instruction
system.cpu0.op_class_0::InstPrefetch                0      0.00%    100.00% # Class of committed instruction
system.cpu0.op_class_0::total                20977542                       # Class of committed instruction
system.cpu0.tickCycles                       40535808                       # Number of cycles that the object actually ticked
system.cpu0.workload.numSyscalls                   92                       # Number of system calls
system.cpu1.branchPred.BTBCorrect                   0                       # Number of correct BTB predictions (this stat may not work properly.
system.cpu1.branchPred.BTBHitPct                  nan                       # BTB Hit Percentage
system.cpu1.branchPred.BTBHits                      0                       # Number of BTB hits
system.cpu1.branchPred.BTBLookups                   0                       # Number of BTB lookups
system.cpu1.branchPred.RASInCorrect                 0                       # Number of incorrect RAS predictions.
system.cpu1.branchPred.condIncorrect               37                       # Number of conditional branches incorrect
system.cpu1.branchPred.condPredicted               80                       # Number of conditional branches predicted
system.cpu1.branchPred.indirectHits                 0                       # Number of indirect target hits.
system.cpu1.branchPred.indirectLookups             24                       # Number of indirect predictor lookups.
system.cpu1.branchPred.indirectMisses              24                       # Number of indirect misses.
system.cpu1.branchPred.lookups                     80                       # Number of BP lookups
system.cpu1.branchPred.usedRAS                      0                       # Number of times the RAS was used to get a target.
system.cpu1.branchPredindirectMispredicted           11                       # Number of mispredicted indirect branches.
system.cpu1.committedInsts                    9728308                       # Number of instructions committed
system.cpu1.committedOps                     15917008                       # Number of ops (including micro ops) committed
system.cpu1.cpi                              7.436427                       # CPI: cycles per instruction
system.cpu1.discardedOps                      5021530                       # Number of ops (including micro ops) which were discarded before commit
system.cpu1.dtb.rdAccesses                    1434062                       # TLB accesses on read requests
system.cpu1.dtb.rdMisses                         2717                       # TLB misses on read requests
system.cpu1.dtb.wrAccesses                     647477                       # TLB accesses on write requests
system.cpu1.dtb.wrMisses                           90                       # TLB misses on write requests
system.cpu1.fetch2.amo_instructions                 0                       # Number of memory atomic instructions successfully decoded
system.cpu1.fetch2.fp_instructions                  0                       # Number of floating point instructions successfully decoded
system.cpu1.fetch2.int_instructions                 9                       # Number of integer instructions successfully decoded
system.cpu1.fetch2.load_instructions                0                       # Number of memory load instructions successfully decoded
system.cpu1.fetch2.store_instructions               0                       # Number of memory store instructions successfully decoded
system.cpu1.fetch2.vec_instructions                 0                       # Number of SIMD instructions successfully decoded
system.cpu1.idleCycles                       40470484                       # Total number of cycles that the object has spent stopped
system.cpu1.ipc                              0.134473                       # IPC: instructions per cycle
system.cpu1.itb.rdAccesses                          0                       # TLB accesses on read requests
system.cpu1.itb.rdMisses                            0                       # TLB misses on read requests
system.cpu1.itb.wrAccesses                    4650019                       # TLB accesses on write requests
system.cpu1.itb.wrMisses                          272                       # TLB misses on write requests
system.cpu1.numCycles                        72343850                       # number of cpu cycles simulated
system.cpu1.numFetchSuspends                        0                       # Number of times Execute suspended instruction fetching
system.cpu1.numWorkItemsCompleted                   0                       # number of work items this cpu completed
system.cpu1.numWorkItemsStarted                     0                       # number of work items this cpu started
system.cpu1.op_class_0::No_OpClass              12559      0.08%      0.08% # Class of committed instruction
system.cpu1.op_class_0::IntAlu               13698596     86.06%     86.14% # Class of committed instruction
system.cpu1.op_class_0::IntMult                  6224      0.04%     86.18% # Class of committed instruction
system.cpu1.op_class_0::IntDiv                   1585      0.01%     86.19% # Class of committed instruction
system.cpu1.op_class_0::FloatAdd               139604      0.88%     87.07% # Class of committed instruction
system.cpu1.op_class_0::FloatCmp                    0      0.00%     87.07% # Class of committed instruction
system.cpu1.op_class_0::FloatCvt                  144      0.00%     87.07% # Class of committed instruction
system.cpu1.op_class_0::FloatMult                   0      0.00%     87.07% # Class of committed instruction
system.cpu1.op_class_0::FloatMultAcc                0      0.00%     87.07% # Class of committed instruction
system.cpu1.op_class_0::FloatDiv                    0      0.00%     87.07% # Class of committed instruction
system.cpu1.op_class_0::FloatMisc                   0      0.00%     87.07% # Class of committed instruction
system.cpu1.op_class_0::FloatSqrt                   0      0.00%     87.07% # Class of committed instruction
system.cpu1.op_class_0::SimdAdd                  1170      0.01%     87.08% # Class of committed instruction
system.cpu1.op_class_0::SimdAddAcc                  0      0.00%     87.08% # Class of committed instruction
system.cpu1.op_class_0::SimdAlu                  1323      0.01%     87.08% # Class of committed instruction
system.cpu1.op_class_0::SimdCmp                     6      0.00%     87.08% # Class of committed instruction
system.cpu1.op_class_0::SimdCvt                  1838      0.01%     87.10% # Class of committed instruction
system.cpu1.op_class_0::SimdMisc                17658      0.11%     87.21% # Class of committed instruction
system.cpu1.op_class_0::SimdMult                    0      0.00%     87.21% # Class of committed instruction
system.cpu1.op_class_0::SimdMultAcc                 0      0.00%     87.21% # Class of committed instruction
system.cpu1.op_class_0::SimdShift                 408      0.00%     87.21% # Class of committed instruction
system.cpu1.op_class_0::SimdShiftAcc                0      0.00%     87.21% # Class of committed instruction
system.cpu1.op_class_0::SimdDiv                     0      0.00%     87.21% # Class of committed instruction
system.cpu1.op_class_0::SimdSqrt                    0      0.00%     87.21% # Class of committed instruction
system.cpu1.op_class_0::SimdFloatAdd            28658      0.18%     87.39% # Class of committed instruction
system.cpu1.op_class_0::SimdFloatAlu                0      0.00%     87.39% # Class of committed instruction
system.cpu1.op_class_0::SimdFloatCmp                0      0.00%     87.39% # Class of committed instruction
system.cpu1.op_class_0::SimdFloatCvt            34832      0.22%     87.61% # Class of committed instruction
system.cpu1.op_class_0::SimdFloatDiv               22      0.00%     87.61% # Class of committed instruction
system.cpu1.op_class_0::SimdFloatMisc               0      0.00%     87.61% # Class of committed instruction
system.cpu1.op_class_0::SimdFloatMult           49128      0.31%     87.92% # Class of committed instruction
system.cpu1.op_class_0::SimdFloatMultAcc            0      0.00%     87.92% # Class of committed instruction
system.cpu1.op_class_0::SimdFloatSqrt               0      0.00%     87.92% # Class of committed instruction
system.cpu1.op_class_0::SimdReduceAdd               0      0.00%     87.92% # Class of committed instruction
system.cpu1.op_class_0::SimdReduceAlu               0      0.00%     87.92% # Class of committed instruction
system.cpu1.op_class_0::SimdReduceCmp               0      0.00%     87.92% # Class of committed instruction
system.cpu1.op_class_0::SimdFloatReduceAdd            0      0.00%     87.92% # Class of committed instruction
system.cpu1.op_class_0::SimdFloatReduceCmp            0      0.00%     87.92% # Class of committed instruction
system.cpu1.op_class_0::SimdAes                     0      0.00%     87.92% # Class of committed instruction
system.cpu1.op_class_0::SimdAesMix                  0      0.00%     87.92% # Class of committed instruction
system.cpu1.op_class_0::SimdSha1Hash                0      0.00%     87.92% # Class of committed instruction
system.cpu1.op_class_0::SimdSha1Hash2               0      0.00%     87.92% # Class of committed instruction
system.cpu1.op_class_0::SimdSha256Hash              0      0.00%     87.92% # Class of committed instruction
system.cpu1.op_class_0::SimdSha256Hash2             0      0.00%     87.92% # Class of committed instruction
system.cpu1.op_class_0::SimdShaSigma2               0      0.00%     87.92% # Class of committed instruction
system.cpu1.op_class_0::SimdShaSigma3               0      0.00%     87.92% # Class of committed instruction
system.cpu1.op_class_0::SimdPredAlu                 0      0.00%     87.92% # Class of committed instruction
system.cpu1.op_class_0::MemRead               1228955      7.72%     95.64% # Class of committed instruction
system.cpu1.op_class_0::MemWrite               568095      3.57%     99.21% # Class of committed instruction
system.cpu1.op_class_0::FloatMemRead            80716      0.51%     99.71% # Class of committed instruction
system.cpu1.op_class_0::FloatMemWrite           45487      0.29%    100.00% # Class of committed instruction
system.cpu1.op_class_0::IprAccess                   0      0.00%    100.00% # Class of committed instruction
system.cpu1.op_class_0::InstPrefetch                0      0.00%    100.00% # Class of committed instruction
system.cpu1.op_class_0::total                15917008                       # Class of committed instruction
system.cpu1.tickCycles                       31873366                       # Number of cycles that the object actually ticked
system.cpu1.workload.numSyscalls                   37                       # Number of system calls
system.membus.snoop_filter.hit_multi_requests            0                       # Number of requests hitting in the snoop filter with multiple (>1) holders of the requested data.
system.membus.snoop_filter.hit_multi_snoops            0                       # Number of snoops hitting in the snoop filter with multiple (>1) holders of the requested data.
system.membus.snoop_filter.hit_single_requests       348947                       # Number of requests hitting in the snoop filter with a single holder of the requested data.
system.membus.snoop_filter.hit_single_snoops            0                       # Number of snoops hitting in the snoop filter with a single holder of the requested data.
system.membus.snoop_filter.tot_requests        698922                       # Total number of requests made to the snoop filter.
system.membus.snoop_filter.tot_snoops               0                       # Total number of snoops made to the snoop filter.
system.tol2bus.snoop_filter.hit_multi_requests            0                       # Number of requests hitting in the snoop filter with multiple (>1) holders of the requested data.
system.tol2bus.snoop_filter.hit_multi_snoops            0                       # Number of snoops hitting in the snoop filter with multiple (>1) holders of the requested data.
system.tol2bus.snoop_filter.hit_single_requests      1871145                       # Number of requests hitting in the snoop filter with a single holder of the requested data.
system.tol2bus.snoop_filter.hit_single_snoops         2502                       # Number of snoops hitting in the snoop filter with a single holder of the requested data.
system.tol2bus.snoop_filter.tot_requests      3742356                       # Total number of requests made to the snoop filter.
system.tol2bus.snoop_filter.tot_snoops           2502                       # Total number of snoops made to the snoop filter.
system.membus.trans_dist::ReadResp             322066                       # Transaction distribution
system.membus.trans_dist::WritebackDirty       128875                       # Transaction distribution
system.membus.trans_dist::CleanEvict           220072                       # Transaction distribution
system.membus.trans_dist::ReadExReq             27908                       # Transaction distribution
system.membus.trans_dist::ReadExResp            27908                       # Transaction distribution
system.membus.trans_dist::ReadSharedReq        322067                       # Transaction distribution
system.membus.pkt_count_system.l2.mem_side::system.mem_ctrls.port      1048896                       # Packet count per connected master and slave (bytes)
system.membus.pkt_count_system.l2.mem_side::total      1048896                       # Packet count per connected master and slave (bytes)
system.membus.pkt_count::total                1048896                       # Packet count per connected master and slave (bytes)
system.membus.pkt_size_system.l2.mem_side::system.mem_ctrls.port     30646336                       # Cumulative packet size per connected master and slave (bytes)
system.membus.pkt_size_system.l2.mem_side::total     30646336                       # Cumulative packet size per connected master and slave (bytes)
system.membus.pkt_size::total                30646336                       # Cumulative packet size per connected master and slave (bytes)
system.membus.snoops                                0                       # Total snoops (count)
system.membus.snoopTraffic                          0                       # Total snoop traffic (bytes)
system.membus.snoop_fanout::samples            349975                       # Request fanout histogram
system.membus.snoop_fanout::mean                    0                       # Request fanout histogram
system.membus.snoop_fanout::stdev                   0                       # Request fanout histogram
system.membus.snoop_fanout::underflows              0      0.00%      0.00% # Request fanout histogram
system.membus.snoop_fanout::0                  349975    100.00%    100.00% # Request fanout histogram
system.membus.snoop_fanout::1                       0      0.00%    100.00% # Request fanout histogram
system.membus.snoop_fanout::overflows               0      0.00%    100.00% # Request fanout histogram
system.membus.snoop_fanout::min_value               0                       # Request fanout histogram
system.membus.snoop_fanout::max_value               0                       # Request fanout histogram
system.membus.snoop_fanout::total              349975                       # Request fanout histogram
system.membus.reqLayer4.occupancy          1331757500                       # Layer occupancy (ticks)
system.membus.reqLayer4.utilization               3.7                       # Layer utilization (%)
system.membus.respLayer1.occupancy         1860084250                       # Layer occupancy (ticks)
system.membus.respLayer1.utilization              5.1                       # Layer utilization (%)
system.membus.power_state.pwrStateResidencyTicks::UNDEFINED  36171975500                       # Cumulative time (in ticks) in various power states
system.voltage_domain.voltage                       1                       # Voltage in Volts
system.clk_domain.clock                          1000                       # Clock period in ticks
system.cpu0.icache.demand_hits::.cpu0.inst      4215220                       # number of demand (read+write) hits
system.cpu0.icache.demand_hits::total         4215220                       # number of demand (read+write) hits
system.cpu0.icache.overall_hits::.cpu0.inst      4215220                       # number of overall hits
system.cpu0.icache.overall_hits::total        4215220                       # number of overall hits
system.cpu0.icache.demand_misses::.cpu0.inst      1140883                       # number of demand (read+write) misses
system.cpu0.icache.demand_misses::total       1140883                       # number of demand (read+write) misses
system.cpu0.icache.overall_misses::.cpu0.inst      1140883                       # number of overall misses
system.cpu0.icache.overall_misses::total      1140883                       # number of overall misses
system.cpu0.icache.demand_miss_latency::.cpu0.inst  18041227000                       # number of demand (read+write) miss cycles
system.cpu0.icache.demand_miss_latency::total  18041227000                       # number of demand (read+write) miss cycles
system.cpu0.icache.overall_miss_latency::.cpu0.inst  18041227000                       # number of overall miss cycles
system.cpu0.icache.overall_miss_latency::total  18041227000                       # number of overall miss cycles
system.cpu0.icache.demand_accesses::.cpu0.inst      5356103                       # number of demand (read+write) accesses
system.cpu0.icache.demand_accesses::total      5356103                       # number of demand (read+write) accesses
system.cpu0.icache.overall_accesses::.cpu0.inst      5356103                       # number of overall (read+write) accesses
system.cpu0.icache.overall_accesses::total      5356103                       # number of overall (read+write) accesses
system.cpu0.icache.demand_miss_rate::.cpu0.inst     0.213006                       # miss rate for demand accesses
system.cpu0.icache.demand_miss_rate::total     0.213006                       # miss rate for demand accesses
system.cpu0.icache.overall_miss_rate::.cpu0.inst     0.213006                       # miss rate for overall accesses
system.cpu0.icache.overall_miss_rate::total     0.213006                       # miss rate for overall accesses
system.cpu0.icache.demand_avg_miss_latency::.cpu0.inst 15813.389278                       # average overall miss latency
system.cpu0.icache.demand_avg_miss_latency::total 15813.389278                       # average overall miss latency
system.cpu0.icache.overall_avg_miss_latency::.cpu0.inst 15813.389278                       # average overall miss latency
system.cpu0.icache.overall_avg_miss_latency::total 15813.389278                       # average overall miss latency
system.cpu0.icache.blocked_cycles::no_mshrs            0                       # number of cycles access was blocked
system.cpu0.icache.blocked_cycles::no_targets            0                       # number of cycles access was blocked
system.cpu0.icache.blocked::no_mshrs                0                       # number of cycles access was blocked
system.cpu0.icache.blocked::no_targets              0                       # number of cycles access was blocked
system.cpu0.icache.avg_blocked_cycles::no_mshrs          nan                       # average number of cycles each access was blocked
system.cpu0.icache.avg_blocked_cycles::no_targets          nan                       # average number of cycles each access was blocked
system.cpu0.icache.writebacks::.writebacks      1140866                       # number of writebacks
system.cpu0.icache.writebacks::total          1140866                       # number of writebacks
system.cpu0.icache.demand_mshr_misses::.cpu0.inst      1140883                       # number of demand (read+write) MSHR misses
system.cpu0.icache.demand_mshr_misses::total      1140883                       # number of demand (read+write) MSHR misses
system.cpu0.icache.overall_mshr_misses::.cpu0.inst      1140883                       # number of overall MSHR misses
system.cpu0.icache.overall_mshr_misses::total      1140883                       # number of overall MSHR misses
system.cpu0.icache.demand_mshr_miss_latency::.cpu0.inst  16900345000                       # number of demand (read+write) MSHR miss cycles
system.cpu0.icache.demand_mshr_miss_latency::total  16900345000                       # number of demand (read+write) MSHR miss cycles
system.cpu0.icache.overall_mshr_miss_latency::.cpu0.inst  16900345000                       # number of overall MSHR miss cycles
system.cpu0.icache.overall_mshr_miss_latency::total  16900345000                       # number of overall MSHR miss cycles
system.cpu0.icache.demand_mshr_miss_rate::.cpu0.inst     0.213006                       # mshr miss rate for demand accesses
system.cpu0.icache.demand_mshr_miss_rate::total     0.213006                       # mshr miss rate for demand accesses
system.cpu0.icache.overall_mshr_miss_rate::.cpu0.inst     0.213006                       # mshr miss rate for overall accesses
system.cpu0.icache.overall_mshr_miss_rate::total     0.213006                       # mshr miss rate for overall accesses
system.cpu0.icache.demand_avg_mshr_miss_latency::.cpu0.inst 14813.390155                       # average overall mshr miss latency
system.cpu0.icache.demand_avg_mshr_miss_latency::total 14813.390155                       # average overall mshr miss latency
system.cpu0.icache.overall_avg_mshr_miss_latency::.cpu0.inst 14813.390155                       # average overall mshr miss latency
system.cpu0.icache.overall_avg_mshr_miss_latency::total 14813.390155                       # average overall mshr miss latency
system.cpu0.icache.replacements               1140866                       # number of replacements
system.cpu0.icache.ReadReq_hits::.cpu0.inst      4215220                       # number of ReadReq hits
system.cpu0.icache.ReadReq_hits::total        4215220                       # number of ReadReq hits
system.cpu0.icache.ReadReq_misses::.cpu0.inst      1140883                       # number of ReadReq misses
system.cpu0.icache.ReadReq_misses::total      1140883                       # number of ReadReq misses
system.cpu0.icache.ReadReq_miss_latency::.cpu0.inst  18041227000                       # number of ReadReq miss cycles
system.cpu0.icache.ReadReq_miss_latency::total  18041227000                       # number of ReadReq miss cycles
system.cpu0.icache.ReadReq_accesses::.cpu0.inst      5356103                       # number of ReadReq accesses(hits+misses)
system.cpu0.icache.ReadReq_accesses::total      5356103                       # number of ReadReq accesses(hits+misses)
system.cpu0.icache.ReadReq_miss_rate::.cpu0.inst     0.213006                       # miss rate for ReadReq accesses
system.cpu0.icache.ReadReq_miss_rate::total     0.213006                       # miss rate for ReadReq accesses
system.cpu0.icache.ReadReq_avg_miss_latency::.cpu0.inst 15813.389278                       # average ReadReq miss latency
system.cpu0.icache.ReadReq_avg_miss_latency::total 15813.389278                       # average ReadReq miss latency
system.cpu0.icache.ReadReq_mshr_misses::.cpu0.inst      1140883                       # number of ReadReq MSHR misses
system.cpu0.icache.ReadReq_mshr_misses::total      1140883                       # number of ReadReq MSHR misses
system.cpu0.icache.ReadReq_mshr_miss_latency::.cpu0.inst  16900345000                       # number of ReadReq MSHR miss cycles
system.cpu0.icache.ReadReq_mshr_miss_latency::total  16900345000                       # number of ReadReq MSHR miss cycles
system.cpu0.icache.ReadReq_mshr_miss_rate::.cpu0.inst     0.213006                       # mshr miss rate for ReadReq accesses
system.cpu0.icache.ReadReq_mshr_miss_rate::total     0.213006                       # mshr miss rate for ReadReq accesses
system.cpu0.icache.ReadReq_avg_mshr_miss_latency::.cpu0.inst 14813.390155                       # average ReadReq mshr miss latency
system.cpu0.icache.ReadReq_avg_mshr_miss_latency::total 14813.390155                       # average ReadReq mshr miss latency
system.cpu0.icache.power_state.pwrStateResidencyTicks::UNDEFINED  36171975500                       # Cumulative time (in ticks) in various power states
system.cpu0.icache.tags.tagsinuse           15.999598                       # Cycle average of tags in use
system.cpu0.icache.tags.total_refs            5356102                       # Total number of references to valid blocks.
system.cpu0.icache.tags.sampled_refs          1140882                       # Sample count of references to valid blocks.
system.cpu0.icache.tags.avg_refs             4.694703                       # Average number of references to valid blocks.
system.cpu0.icache.tags.warmup_cycle            87500                       # Cycle when the warmup percentage was hit.
system.cpu0.icache.tags.occ_blocks::.cpu0.inst    15.999598                       # Average occupied blocks per requestor
system.cpu0.icache.tags.occ_percent::.cpu0.inst     0.999975                       # Average percentage of cache occupancy
system.cpu0.icache.tags.occ_percent::total     0.999975                       # Average percentage of cache occupancy
system.cpu0.icache.tags.occ_task_id_blocks::1024           16                       # Occupied blocks per task id
system.cpu0.icache.tags.age_task_id_blocks_1024::0           16                       # Occupied blocks per task id
system.cpu0.icache.tags.occ_task_id_percent::1024            1                       # Percentage of cache occupancy per task id
system.cpu0.icache.tags.tag_accesses         43989706                       # Number of tag accesses
system.cpu0.icache.tags.data_accesses        43989706                       # Number of data accesses
system.cpu0.icache.tags.power_state.pwrStateResidencyTicks::UNDEFINED  36171975500                       # Cumulative time (in ticks) in various power states
system.cpu0.dtb.walker.power_state.pwrStateResidencyTicks::UNDEFINED  36171975500                       # Cumulative time (in ticks) in various power states
system.cpu0.interrupts.clk_domain.clock          8000                       # Clock period in ticks
system.cpu0.itb_walker_cache.blocked_cycles::no_mshrs            0                       # number of cycles access was blocked
system.cpu0.itb_walker_cache.blocked_cycles::no_targets            0                       # number of cycles access was blocked
system.cpu0.itb_walker_cache.blocked::no_mshrs            0                       # number of cycles access was blocked
system.cpu0.itb_walker_cache.blocked::no_targets            0                       # number of cycles access was blocked
system.cpu0.itb_walker_cache.avg_blocked_cycles::no_mshrs          nan                       # average number of cycles each access was blocked
system.cpu0.itb_walker_cache.avg_blocked_cycles::no_targets          nan                       # average number of cycles each access was blocked
system.cpu0.itb_walker_cache.replacements            0                       # number of replacements
system.cpu0.itb_walker_cache.power_state.pwrStateResidencyTicks::UNDEFINED  36171975500                       # Cumulative time (in ticks) in various power states
system.cpu0.itb_walker_cache.tags.tagsinuse            0                       # Cycle average of tags in use
system.cpu0.itb_walker_cache.tags.total_refs            0                       # Total number of references to valid blocks.
system.cpu0.itb_walker_cache.tags.sampled_refs            0                       # Sample count of references to valid blocks.
system.cpu0.itb_walker_cache.tags.avg_refs          nan                       # Average number of references to valid blocks.
system.cpu0.itb_walker_cache.tags.warmup_cycle            0                       # Cycle when the warmup percentage was hit.
system.cpu0.itb_walker_cache.tags.tag_accesses            0                       # Number of tag accesses
system.cpu0.itb_walker_cache.tags.data_accesses            0                       # Number of data accesses
system.cpu0.itb_walker_cache.tags.power_state.pwrStateResidencyTicks::UNDEFINED  36171975500                       # Cumulative time (in ticks) in various power states
system.cpu0.dtb_walker_cache.blocked_cycles::no_mshrs            0                       # number of cycles access was blocked
system.cpu0.dtb_walker_cache.blocked_cycles::no_targets            0                       # number of cycles access was blocked
system.cpu0.dtb_walker_cache.blocked::no_mshrs            0                       # number of cycles access was blocked
system.cpu0.dtb_walker_cache.blocked::no_targets            0                       # number of cycles access was blocked
system.cpu0.dtb_walker_cache.avg_blocked_cycles::no_mshrs          nan                       # average number of cycles each access was blocked
system.cpu0.dtb_walker_cache.avg_blocked_cycles::no_targets          nan                       # average number of cycles each access was blocked
system.cpu0.dtb_walker_cache.replacements            0                       # number of replacements
system.cpu0.dtb_walker_cache.power_state.pwrStateResidencyTicks::UNDEFINED  36171975500                       # Cumulative time (in ticks) in various power states
system.cpu0.dtb_walker_cache.tags.tagsinuse            0                       # Cycle average of tags in use
system.cpu0.dtb_walker_cache.tags.total_refs            0                       # Total number of references to valid blocks.
system.cpu0.dtb_walker_cache.tags.sampled_refs            0                       # Sample count of references to valid blocks.
system.cpu0.dtb_walker_cache.tags.avg_refs          nan                       # Average number of references to valid blocks.
system.cpu0.dtb_walker_cache.tags.warmup_cycle            0                       # Cycle when the warmup percentage was hit.
system.cpu0.dtb_walker_cache.tags.tag_accesses            0                       # Number of tag accesses
system.cpu0.dtb_walker_cache.tags.data_accesses            0                       # Number of data accesses
system.cpu0.dtb_walker_cache.tags.power_state.pwrStateResidencyTicks::UNDEFINED  36171975500                       # Cumulative time (in ticks) in various power states
system.cpu0.dcache.demand_hits::.cpu0.data      3326515                       # number of demand (read+write) hits
system.cpu0.dcache.demand_hits::total         3326515                       # number of demand (read+write) hits
system.cpu0.dcache.overall_hits::.cpu0.data      3327480                       # number of overall hits
system.cpu0.dcache.overall_hits::total        3327480                       # number of overall hits
system.cpu0.dcache.demand_misses::.cpu0.data       462585                       # number of demand (read+write) misses
system.cpu0.dcache.demand_misses::total        462585                       # number of demand (read+write) misses
system.cpu0.dcache.overall_misses::.cpu0.data       463674                       # number of overall misses
system.cpu0.dcache.overall_misses::total       463674                       # number of overall misses
system.cpu0.dcache.demand_miss_latency::.cpu0.data  10613571000                       # number of demand (read+write) miss cycles
system.cpu0.dcache.demand_miss_latency::total  10613571000                       # number of demand (read+write) miss cycles
system.cpu0.dcache.overall_miss_latency::.cpu0.data  10613571000                       # number of overall miss cycles
system.cpu0.dcache.overall_miss_latency::total  10613571000                       # number of overall miss cycles
system.cpu0.dcache.demand_accesses::.cpu0.data      3789100                       # number of demand (read+write) accesses
system.cpu0.dcache.demand_accesses::total      3789100                       # number of demand (read+write) accesses
system.cpu0.dcache.overall_accesses::.cpu0.data      3791154                       # number of overall (read+write) accesses
system.cpu0.dcache.overall_accesses::total      3791154                       # number of overall (read+write) accesses
system.cpu0.dcache.demand_miss_rate::.cpu0.data     0.122083                       # miss rate for demand accesses
system.cpu0.dcache.demand_miss_rate::total     0.122083                       # miss rate for demand accesses
system.cpu0.dcache.overall_miss_rate::.cpu0.data     0.122304                       # miss rate for overall accesses
system.cpu0.dcache.overall_miss_rate::total     0.122304                       # miss rate for overall accesses
system.cpu0.dcache.demand_avg_miss_latency::.cpu0.data 22944.044878                       # average overall miss latency
system.cpu0.dcache.demand_avg_miss_latency::total 22944.044878                       # average overall miss latency
system.cpu0.dcache.overall_avg_miss_latency::.cpu0.data 22890.157740                       # average overall miss latency
system.cpu0.dcache.overall_avg_miss_latency::total 22890.157740                       # average overall miss latency
system.cpu0.dcache.blocked_cycles::no_mshrs            0                       # number of cycles access was blocked
system.cpu0.dcache.blocked_cycles::no_targets            0                       # number of cycles access was blocked
system.cpu0.dcache.blocked::no_mshrs                0                       # number of cycles access was blocked
system.cpu0.dcache.blocked::no_targets              0                       # number of cycles access was blocked
system.cpu0.dcache.avg_blocked_cycles::no_mshrs          nan                       # average number of cycles each access was blocked
system.cpu0.dcache.avg_blocked_cycles::no_targets          nan                       # average number of cycles each access was blocked
system.cpu0.dcache.writebacks::.writebacks       183130                       # number of writebacks
system.cpu0.dcache.writebacks::total           183130                       # number of writebacks
system.cpu0.dcache.demand_mshr_hits::.cpu0.data        76811                       # number of demand (read+write) MSHR hits
system.cpu0.dcache.demand_mshr_hits::total        76811                       # number of demand (read+write) MSHR hits
system.cpu0.dcache.overall_mshr_hits::.cpu0.data        76811                       # number of overall MSHR hits
system.cpu0.dcache.overall_mshr_hits::total        76811                       # number of overall MSHR hits
system.cpu0.dcache.demand_mshr_misses::.cpu0.data       385774                       # number of demand (read+write) MSHR misses
system.cpu0.dcache.demand_mshr_misses::total       385774                       # number of demand (read+write) MSHR misses
system.cpu0.dcache.overall_mshr_misses::.cpu0.data       386812                       # number of overall MSHR misses
system.cpu0.dcache.overall_mshr_misses::total       386812                       # number of overall MSHR misses
system.cpu0.dcache.demand_mshr_miss_latency::.cpu0.data   8094611500                       # number of demand (read+write) MSHR miss cycles
system.cpu0.dcache.demand_mshr_miss_latency::total   8094611500                       # number of demand (read+write) MSHR miss cycles
system.cpu0.dcache.overall_mshr_miss_latency::.cpu0.data   8140674500                       # number of overall MSHR miss cycles
system.cpu0.dcache.overall_mshr_miss_latency::total   8140674500                       # number of overall MSHR miss cycles
system.cpu0.dcache.demand_mshr_miss_rate::.cpu0.data     0.101812                       # mshr miss rate for demand accesses
system.cpu0.dcache.demand_mshr_miss_rate::total     0.101812                       # mshr miss rate for demand accesses
system.cpu0.dcache.overall_mshr_miss_rate::.cpu0.data     0.102030                       # mshr miss rate for overall accesses
system.cpu0.dcache.overall_mshr_miss_rate::total     0.102030                       # mshr miss rate for overall accesses
system.cpu0.dcache.demand_avg_mshr_miss_latency::.cpu0.data 20982.781369                       # average overall mshr miss latency
system.cpu0.dcache.demand_avg_mshr_miss_latency::total 20982.781369                       # average overall mshr miss latency
system.cpu0.dcache.overall_avg_mshr_miss_latency::.cpu0.data 21045.558307                       # average overall mshr miss latency
system.cpu0.dcache.overall_avg_mshr_miss_latency::total 21045.558307                       # average overall mshr miss latency
system.cpu0.dcache.replacements                386796                       # number of replacements
system.cpu0.dcache.ReadReq_hits::.cpu0.data      2074411                       # number of ReadReq hits
system.cpu0.dcache.ReadReq_hits::total        2074411                       # number of ReadReq hits
system.cpu0.dcache.ReadReq_misses::.cpu0.data       297588                       # number of ReadReq misses
system.cpu0.dcache.ReadReq_misses::total       297588                       # number of ReadReq misses
system.cpu0.dcache.ReadReq_miss_latency::.cpu0.data   6148256000                       # number of ReadReq miss cycles
system.cpu0.dcache.ReadReq_miss_latency::total   6148256000                       # number of ReadReq miss cycles
system.cpu0.dcache.ReadReq_accesses::.cpu0.data      2371999                       # number of ReadReq accesses(hits+misses)
system.cpu0.dcache.ReadReq_accesses::total      2371999                       # number of ReadReq accesses(hits+misses)
system.cpu0.dcache.ReadReq_miss_rate::.cpu0.data     0.125459                       # miss rate for ReadReq accesses
system.cpu0.dcache.ReadReq_miss_rate::total     0.125459                       # miss rate for ReadReq accesses
system.cpu0.dcache.ReadReq_avg_miss_latency::.cpu0.data 20660.295442                       # average ReadReq miss latency
system.cpu0.dcache.ReadReq_avg_miss_latency::total 20660.295442                       # average ReadReq miss latency
system.cpu0.dcache.ReadReq_mshr_hits::.cpu0.data        12905                       # number of ReadReq MSHR hits
system.cpu0.dcache.ReadReq_mshr_hits::total        12905                       # number of ReadReq MSHR hits
system.cpu0.dcache.ReadReq_mshr_misses::.cpu0.data       284683                       # number of ReadReq MSHR misses
system.cpu0.dcache.ReadReq_mshr_misses::total       284683                       # number of ReadReq MSHR misses
system.cpu0.dcache.ReadReq_mshr_miss_latency::.cpu0.data   5571616500                       # number of ReadReq MSHR miss cycles
system.cpu0.dcache.ReadReq_mshr_miss_latency::total   5571616500                       # number of ReadReq MSHR miss cycles
system.cpu0.dcache.ReadReq_mshr_miss_rate::.cpu0.data     0.120018                       # mshr miss rate for ReadReq accesses
system.cpu0.dcache.ReadReq_mshr_miss_rate::total     0.120018                       # mshr miss rate for ReadReq accesses
system.cpu0.dcache.ReadReq_avg_mshr_miss_latency::.cpu0.data 19571.300359                       # average ReadReq mshr miss latency
system.cpu0.dcache.ReadReq_avg_mshr_miss_latency::total 19571.300359                       # average ReadReq mshr miss latency
system.cpu0.dcache.WriteReq_hits::.cpu0.data      1252104                       # number of WriteReq hits
system.cpu0.dcache.WriteReq_hits::total       1252104                       # number of WriteReq hits
system.cpu0.dcache.WriteReq_misses::.cpu0.data       164997                       # number of WriteReq misses
system.cpu0.dcache.WriteReq_misses::total       164997                       # number of WriteReq misses
system.cpu0.dcache.WriteReq_miss_latency::.cpu0.data   4465315000                       # number of WriteReq miss cycles
system.cpu0.dcache.WriteReq_miss_latency::total   4465315000                       # number of WriteReq miss cycles
system.cpu0.dcache.WriteReq_accesses::.cpu0.data      1417101                       # number of WriteReq accesses(hits+misses)
system.cpu0.dcache.WriteReq_accesses::total      1417101                       # number of WriteReq accesses(hits+misses)
system.cpu0.dcache.WriteReq_miss_rate::.cpu0.data     0.116433                       # miss rate for WriteReq accesses
system.cpu0.dcache.WriteReq_miss_rate::total     0.116433                       # miss rate for WriteReq accesses
system.cpu0.dcache.WriteReq_avg_miss_latency::.cpu0.data 27063.007206                       # average WriteReq miss latency
system.cpu0.dcache.WriteReq_avg_miss_latency::total 27063.007206                       # average WriteReq miss latency
system.cpu0.dcache.WriteReq_mshr_hits::.cpu0.data        63906                       # number of WriteReq MSHR hits
system.cpu0.dcache.WriteReq_mshr_hits::total        63906                       # number of WriteReq MSHR hits
system.cpu0.dcache.WriteReq_mshr_misses::.cpu0.data       101091                       # number of WriteReq MSHR misses
system.cpu0.dcache.WriteReq_mshr_misses::total       101091                       # number of WriteReq MSHR misses
system.cpu0.dcache.WriteReq_mshr_miss_latency::.cpu0.data   2522995000                       # number of WriteReq MSHR miss cycles
system.cpu0.dcache.WriteReq_mshr_miss_latency::total   2522995000                       # number of WriteReq MSHR miss cycles
system.cpu0.dcache.WriteReq_mshr_miss_rate::.cpu0.data     0.071336                       # mshr miss rate for WriteReq accesses
system.cpu0.dcache.WriteReq_mshr_miss_rate::total     0.071336                       # mshr miss rate for WriteReq accesses
system.cpu0.dcache.WriteReq_avg_mshr_miss_latency::.cpu0.data 24957.661909                       # average WriteReq mshr miss latency
system.cpu0.dcache.WriteReq_avg_mshr_miss_latency::total 24957.661909                       # average WriteReq mshr miss latency
system.cpu0.dcache.SoftPFReq_hits::.cpu0.data          965                       # number of SoftPFReq hits
system.cpu0.dcache.SoftPFReq_hits::total          965                       # number of SoftPFReq hits
system.cpu0.dcache.SoftPFReq_misses::.cpu0.data         1089                       # number of SoftPFReq misses
system.cpu0.dcache.SoftPFReq_misses::total         1089                       # number of SoftPFReq misses
system.cpu0.dcache.SoftPFReq_accesses::.cpu0.data         2054                       # number of SoftPFReq accesses(hits+misses)
system.cpu0.dcache.SoftPFReq_accesses::total         2054                       # number of SoftPFReq accesses(hits+misses)
system.cpu0.dcache.SoftPFReq_miss_rate::.cpu0.data     0.530185                       # miss rate for SoftPFReq accesses
system.cpu0.dcache.SoftPFReq_miss_rate::total     0.530185                       # miss rate for SoftPFReq accesses
system.cpu0.dcache.SoftPFReq_mshr_misses::.cpu0.data         1038                       # number of SoftPFReq MSHR misses
system.cpu0.dcache.SoftPFReq_mshr_misses::total         1038                       # number of SoftPFReq MSHR misses
system.cpu0.dcache.SoftPFReq_mshr_miss_latency::.cpu0.data     46063000                       # number of SoftPFReq MSHR miss cycles
system.cpu0.dcache.SoftPFReq_mshr_miss_latency::total     46063000                       # number of SoftPFReq MSHR miss cycles
system.cpu0.dcache.SoftPFReq_mshr_miss_rate::.cpu0.data     0.505355                       # mshr miss rate for SoftPFReq accesses
system.cpu0.dcache.SoftPFReq_mshr_miss_rate::total     0.505355                       # mshr miss rate for SoftPFReq accesses
system.cpu0.dcache.SoftPFReq_avg_mshr_miss_latency::.cpu0.data 44376.685934                       # average SoftPFReq mshr miss latency
system.cpu0.dcache.SoftPFReq_avg_mshr_miss_latency::total 44376.685934                       # average SoftPFReq mshr miss latency
system.cpu0.dcache.power_state.pwrStateResidencyTicks::UNDEFINED  36171975500                       # Cumulative time (in ticks) in various power states
system.cpu0.dcache.tags.tagsinuse           15.999622                       # Cycle average of tags in use
system.cpu0.dcache.tags.total_refs            3714292                       # Total number of references to valid blocks.
system.cpu0.dcache.tags.sampled_refs           386812                       # Sample count of references to valid blocks.
system.cpu0.dcache.tags.avg_refs             9.602318                       # Average number of references to valid blocks.
system.cpu0.dcache.tags.warmup_cycle           178500                       # Cycle when the warmup percentage was hit.
system.cpu0.dcache.tags.occ_blocks::.cpu0.data    15.999622                       # Average occupied blocks per requestor
system.cpu0.dcache.tags.occ_percent::.cpu0.data     0.999976                       # Average percentage of cache occupancy
system.cpu0.dcache.tags.occ_percent::total     0.999976                       # Average percentage of cache occupancy
system.cpu0.dcache.tags.occ_task_id_blocks::1024           16                       # Occupied blocks per task id
system.cpu0.dcache.tags.age_task_id_blocks_1024::0           16                       # Occupied blocks per task id
system.cpu0.dcache.tags.occ_task_id_percent::1024            1                       # Percentage of cache occupancy per task id
system.cpu0.dcache.tags.tag_accesses         30716044                       # Number of tag accesses
system.cpu0.dcache.tags.data_accesses        30716044                       # Number of data accesses
system.cpu0.dcache.tags.power_state.pwrStateResidencyTicks::UNDEFINED  36171975500                       # Cumulative time (in ticks) in various power states
system.cpu0.power_state.pwrStateResidencyTicks::ON  36171975500                       # Cumulative time (in ticks) in various power states
system.cpu0.itb.walker.power_state.pwrStateResidencyTicks::UNDEFINED  36171975500                       # Cumulative time (in ticks) in various power states
system.cpu1.icache.demand_hits::.cpu1.inst      4577972                       # number of demand (read+write) hits
system.cpu1.icache.demand_hits::total         4577972                       # number of demand (read+write) hits
system.cpu1.icache.overall_hits::.cpu1.inst      4577972                       # number of overall hits
system.cpu1.icache.overall_hits::total        4577972                       # number of overall hits
system.cpu1.icache.demand_misses::.cpu1.inst        71983                       # number of demand (read+write) misses
system.cpu1.icache.demand_misses::total         71983                       # number of demand (read+write) misses
system.cpu1.icache.overall_misses::.cpu1.inst        71983                       # number of overall misses
system.cpu1.icache.overall_misses::total        71983                       # number of overall misses
system.cpu1.icache.demand_miss_latency::.cpu1.inst   1596128000                       # number of demand (read+write) miss cycles
system.cpu1.icache.demand_miss_latency::total   1596128000                       # number of demand (read+write) miss cycles
system.cpu1.icache.overall_miss_latency::.cpu1.inst   1596128000                       # number of overall miss cycles
system.cpu1.icache.overall_miss_latency::total   1596128000                       # number of overall miss cycles
system.cpu1.icache.demand_accesses::.cpu1.inst      4649955                       # number of demand (read+write) accesses
system.cpu1.icache.demand_accesses::total      4649955                       # number of demand (read+write) accesses
system.cpu1.icache.overall_accesses::.cpu1.inst      4649955                       # number of overall (read+write) accesses
system.cpu1.icache.overall_accesses::total      4649955                       # number of overall (read+write) accesses
system.cpu1.icache.demand_miss_rate::.cpu1.inst     0.015480                       # miss rate for demand accesses
system.cpu1.icache.demand_miss_rate::total     0.015480                       # miss rate for demand accesses
system.cpu1.icache.overall_miss_rate::.cpu1.inst     0.015480                       # miss rate for overall accesses
system.cpu1.icache.overall_miss_rate::total     0.015480                       # miss rate for overall accesses
system.cpu1.icache.demand_avg_miss_latency::.cpu1.inst 22173.679897                       # average overall miss latency
system.cpu1.icache.demand_avg_miss_latency::total 22173.679897                       # average overall miss latency
system.cpu1.icache.overall_avg_miss_latency::.cpu1.inst 22173.679897                       # average overall miss latency
system.cpu1.icache.overall_avg_miss_latency::total 22173.679897                       # average overall miss latency
system.cpu1.icache.blocked_cycles::no_mshrs            0                       # number of cycles access was blocked
system.cpu1.icache.blocked_cycles::no_targets            0                       # number of cycles access was blocked
system.cpu1.icache.blocked::no_mshrs                0                       # number of cycles access was blocked
system.cpu1.icache.blocked::no_targets              0                       # number of cycles access was blocked
system.cpu1.icache.avg_blocked_cycles::no_mshrs          nan                       # average number of cycles each access was blocked
system.cpu1.icache.avg_blocked_cycles::no_targets          nan                       # average number of cycles each access was blocked
system.cpu1.icache.writebacks::.writebacks        71967                       # number of writebacks
system.cpu1.icache.writebacks::total            71967                       # number of writebacks
system.cpu1.icache.demand_mshr_misses::.cpu1.inst        71983                       # number of demand (read+write) MSHR misses
system.cpu1.icache.demand_mshr_misses::total        71983                       # number of demand (read+write) MSHR misses
system.cpu1.icache.overall_mshr_misses::.cpu1.inst        71983                       # number of overall MSHR misses
system.cpu1.icache.overall_mshr_misses::total        71983                       # number of overall MSHR misses
system.cpu1.icache.demand_mshr_miss_latency::.cpu1.inst   1524145000                       # number of demand (read+write) MSHR miss cycles
system.cpu1.icache.demand_mshr_miss_latency::total   1524145000                       # number of demand (read+write) MSHR miss cycles
system.cpu1.icache.overall_mshr_miss_latency::.cpu1.inst   1524145000                       # number of overall MSHR miss cycles
system.cpu1.icache.overall_mshr_miss_latency::total   1524145000                       # number of overall MSHR miss cycles
system.cpu1.icache.demand_mshr_miss_rate::.cpu1.inst     0.015480                       # mshr miss rate for demand accesses
system.cpu1.icache.demand_mshr_miss_rate::total     0.015480                       # mshr miss rate for demand accesses
system.cpu1.icache.overall_mshr_miss_rate::.cpu1.inst     0.015480                       # mshr miss rate for overall accesses
system.cpu1.icache.overall_mshr_miss_rate::total     0.015480                       # mshr miss rate for overall accesses
system.cpu1.icache.demand_avg_mshr_miss_latency::.cpu1.inst 21173.679897                       # average overall mshr miss latency
system.cpu1.icache.demand_avg_mshr_miss_latency::total 21173.679897                       # average overall mshr miss latency
system.cpu1.icache.overall_avg_mshr_miss_latency::.cpu1.inst 21173.679897                       # average overall mshr miss latency
system.cpu1.icache.overall_avg_mshr_miss_latency::total 21173.679897                       # average overall mshr miss latency
system.cpu1.icache.replacements                 71967                       # number of replacements
system.cpu1.icache.ReadReq_hits::.cpu1.inst      4577972                       # number of ReadReq hits
system.cpu1.icache.ReadReq_hits::total        4577972                       # number of ReadReq hits
system.cpu1.icache.ReadReq_misses::.cpu1.inst        71983                       # number of ReadReq misses
system.cpu1.icache.ReadReq_misses::total        71983                       # number of ReadReq misses
system.cpu1.icache.ReadReq_miss_latency::.cpu1.inst   1596128000                       # number of ReadReq miss cycles
system.cpu1.icache.ReadReq_miss_latency::total   1596128000                       # number of ReadReq miss cycles
system.cpu1.icache.ReadReq_accesses::.cpu1.inst      4649955                       # number of ReadReq accesses(hits+misses)
system.cpu1.icache.ReadReq_accesses::total      4649955                       # number of ReadReq accesses(hits+misses)
system.cpu1.icache.ReadReq_miss_rate::.cpu1.inst     0.015480                       # miss rate for ReadReq accesses
system.cpu1.icache.ReadReq_miss_rate::total     0.015480                       # miss rate for ReadReq accesses
system.cpu1.icache.ReadReq_avg_miss_latency::.cpu1.inst 22173.679897                       # average ReadReq miss latency
system.cpu1.icache.ReadReq_avg_miss_latency::total 22173.679897                       # average ReadReq miss latency
system.cpu1.icache.ReadReq_mshr_misses::.cpu1.inst        71983                       # number of ReadReq MSHR misses
system.cpu1.icache.ReadReq_mshr_misses::total        71983                       # number of ReadReq MSHR misses
system.cpu1.icache.ReadReq_mshr_miss_latency::.cpu1.inst   1524145000                       # number of ReadReq MSHR miss cycles
system.cpu1.icache.ReadReq_mshr_miss_latency::total   1524145000                       # number of ReadReq MSHR miss cycles
system.cpu1.icache.ReadReq_mshr_miss_rate::.cpu1.inst     0.015480                       # mshr miss rate for ReadReq accesses
system.cpu1.icache.ReadReq_mshr_miss_rate::total     0.015480                       # mshr miss rate for ReadReq accesses
system.cpu1.icache.ReadReq_avg_mshr_miss_latency::.cpu1.inst 21173.679897                       # average ReadReq mshr miss latency
system.cpu1.icache.ReadReq_avg_mshr_miss_latency::total 21173.679897                       # average ReadReq mshr miss latency
system.cpu1.icache.power_state.pwrStateResidencyTicks::UNDEFINED  36171975500                       # Cumulative time (in ticks) in various power states
system.cpu1.icache.tags.tagsinuse           15.999588                       # Cycle average of tags in use
system.cpu1.icache.tags.total_refs            4649955                       # Total number of references to valid blocks.
system.cpu1.icache.tags.sampled_refs            71983                       # Sample count of references to valid blocks.
system.cpu1.icache.tags.avg_refs            64.597961                       # Average number of references to valid blocks.
system.cpu1.icache.tags.warmup_cycle            94500                       # Cycle when the warmup percentage was hit.
system.cpu1.icache.tags.occ_blocks::.cpu1.inst    15.999588                       # Average occupied blocks per requestor
system.cpu1.icache.tags.occ_percent::.cpu1.inst     0.999974                       # Average percentage of cache occupancy
system.cpu1.icache.tags.occ_percent::total     0.999974                       # Average percentage of cache occupancy
system.cpu1.icache.tags.occ_task_id_blocks::1024           16                       # Occupied blocks per task id
system.cpu1.icache.tags.age_task_id_blocks_1024::1           13                       # Occupied blocks per task id
system.cpu1.icache.tags.age_task_id_blocks_1024::2            3                       # Occupied blocks per task id
system.cpu1.icache.tags.occ_task_id_percent::1024            1                       # Percentage of cache occupancy per task id
system.cpu1.icache.tags.tag_accesses         37271623                       # Number of tag accesses
system.cpu1.icache.tags.data_accesses        37271623                       # Number of data accesses
system.cpu1.icache.tags.power_state.pwrStateResidencyTicks::UNDEFINED  36171975500                       # Cumulative time (in ticks) in various power states
system.cpu1.dtb.walker.power_state.pwrStateResidencyTicks::UNDEFINED  36171975500                       # Cumulative time (in ticks) in various power states
system.cpu1.interrupts.clk_domain.clock          8000                       # Clock period in ticks
system.cpu1.itb_walker_cache.blocked_cycles::no_mshrs            0                       # number of cycles access was blocked
system.cpu1.itb_walker_cache.blocked_cycles::no_targets            0                       # number of cycles access was blocked
system.cpu1.itb_walker_cache.blocked::no_mshrs            0                       # number of cycles access was blocked
system.cpu1.itb_walker_cache.blocked::no_targets            0                       # number of cycles access was blocked
system.cpu1.itb_walker_cache.avg_blocked_cycles::no_mshrs          nan                       # average number of cycles each access was blocked
system.cpu1.itb_walker_cache.avg_blocked_cycles::no_targets          nan                       # average number of cycles each access was blocked
system.cpu1.itb_walker_cache.replacements            0                       # number of replacements
system.cpu1.itb_walker_cache.power_state.pwrStateResidencyTicks::UNDEFINED  36171975500                       # Cumulative time (in ticks) in various power states
system.cpu1.itb_walker_cache.tags.tagsinuse            0                       # Cycle average of tags in use
system.cpu1.itb_walker_cache.tags.total_refs            0                       # Total number of references to valid blocks.
system.cpu1.itb_walker_cache.tags.sampled_refs            0                       # Sample count of references to valid blocks.
system.cpu1.itb_walker_cache.tags.avg_refs          nan                       # Average number of references to valid blocks.
system.cpu1.itb_walker_cache.tags.warmup_cycle            0                       # Cycle when the warmup percentage was hit.
system.cpu1.itb_walker_cache.tags.tag_accesses            0                       # Number of tag accesses
system.cpu1.itb_walker_cache.tags.data_accesses            0                       # Number of data accesses
system.cpu1.itb_walker_cache.tags.power_state.pwrStateResidencyTicks::UNDEFINED  36171975500                       # Cumulative time (in ticks) in various power states
system.cpu1.dtb_walker_cache.blocked_cycles::no_mshrs            0                       # number of cycles access was blocked
system.cpu1.dtb_walker_cache.blocked_cycles::no_targets            0                       # number of cycles access was blocked
system.cpu1.dtb_walker_cache.blocked::no_mshrs            0                       # number of cycles access was blocked
system.cpu1.dtb_walker_cache.blocked::no_targets            0                       # number of cycles access was blocked
system.cpu1.dtb_walker_cache.avg_blocked_cycles::no_mshrs          nan                       # average number of cycles each access was blocked
system.cpu1.dtb_walker_cache.avg_blocked_cycles::no_targets          nan                       # average number of cycles each access was blocked
system.cpu1.dtb_walker_cache.replacements            0                       # number of replacements
system.cpu1.dtb_walker_cache.power_state.pwrStateResidencyTicks::UNDEFINED  36171975500                       # Cumulative time (in ticks) in various power states
system.cpu1.dtb_walker_cache.tags.tagsinuse            0                       # Cycle average of tags in use
system.cpu1.dtb_walker_cache.tags.total_refs            0                       # Total number of references to valid blocks.
system.cpu1.dtb_walker_cache.tags.sampled_refs            0                       # Sample count of references to valid blocks.
system.cpu1.dtb_walker_cache.tags.avg_refs          nan                       # Average number of references to valid blocks.
system.cpu1.dtb_walker_cache.tags.warmup_cycle            0                       # Cycle when the warmup percentage was hit.
system.cpu1.dtb_walker_cache.tags.tag_accesses            0                       # Number of tag accesses
system.cpu1.dtb_walker_cache.tags.data_accesses            0                       # Number of data accesses
system.cpu1.dtb_walker_cache.tags.power_state.pwrStateResidencyTicks::UNDEFINED  36171975500                       # Cumulative time (in ticks) in various power states
system.cpu1.dcache.demand_hits::.cpu1.data      1759484                       # number of demand (read+write) hits
system.cpu1.dcache.demand_hits::total         1759484                       # number of demand (read+write) hits
system.cpu1.dcache.overall_hits::.cpu1.data      1759541                       # number of overall hits
system.cpu1.dcache.overall_hits::total        1759541                       # number of overall hits
system.cpu1.dcache.demand_misses::.cpu1.data       281600                       # number of demand (read+write) misses
system.cpu1.dcache.demand_misses::total        281600                       # number of demand (read+write) misses
system.cpu1.dcache.overall_misses::.cpu1.data       281657                       # number of overall misses
system.cpu1.dcache.overall_misses::total       281657                       # number of overall misses
system.cpu1.dcache.demand_miss_latency::.cpu1.data  21288540000                       # number of demand (read+write) miss cycles
system.cpu1.dcache.demand_miss_latency::total  21288540000                       # number of demand (read+write) miss cycles
system.cpu1.dcache.overall_miss_latency::.cpu1.data  21288540000                       # number of overall miss cycles
system.cpu1.dcache.overall_miss_latency::total  21288540000                       # number of overall miss cycles
system.cpu1.dcache.demand_accesses::.cpu1.data      2041084                       # number of demand (read+write) accesses
system.cpu1.dcache.demand_accesses::total      2041084                       # number of demand (read+write) accesses
system.cpu1.dcache.overall_accesses::.cpu1.data      2041198                       # number of overall (read+write) accesses
system.cpu1.dcache.overall_accesses::total      2041198                       # number of overall (read+write) accesses
system.cpu1.dcache.demand_miss_rate::.cpu1.data     0.137966                       # miss rate for demand accesses
system.cpu1.dcache.demand_miss_rate::total     0.137966                       # miss rate for demand accesses
system.cpu1.dcache.overall_miss_rate::.cpu1.data     0.137986                       # miss rate for overall accesses
system.cpu1.dcache.overall_miss_rate::total     0.137986                       # miss rate for overall accesses
system.cpu1.dcache.demand_avg_miss_latency::.cpu1.data 75598.508523                       # average overall miss latency
system.cpu1.dcache.demand_avg_miss_latency::total 75598.508523                       # average overall miss latency
system.cpu1.dcache.overall_avg_miss_latency::.cpu1.data 75583.209365                       # average overall miss latency
system.cpu1.dcache.overall_avg_miss_latency::total 75583.209365                       # average overall miss latency
system.cpu1.dcache.blocked_cycles::no_mshrs            0                       # number of cycles access was blocked
system.cpu1.dcache.blocked_cycles::no_targets            0                       # number of cycles access was blocked
system.cpu1.dcache.blocked::no_mshrs                0                       # number of cycles access was blocked
system.cpu1.dcache.blocked::no_targets              0                       # number of cycles access was blocked
system.cpu1.dcache.avg_blocked_cycles::no_mshrs          nan                       # average number of cycles each access was blocked
system.cpu1.dcache.avg_blocked_cycles::no_targets          nan                       # average number of cycles each access was blocked
system.cpu1.dcache.writebacks::.writebacks       114884                       # number of writebacks
system.cpu1.dcache.writebacks::total           114884                       # number of writebacks
system.cpu1.dcache.demand_mshr_hits::.cpu1.data        10124                       # number of demand (read+write) MSHR hits
system.cpu1.dcache.demand_mshr_hits::total        10124                       # number of demand (read+write) MSHR hits
system.cpu1.dcache.overall_mshr_hits::.cpu1.data        10124                       # number of overall MSHR hits
system.cpu1.dcache.overall_mshr_hits::total        10124                       # number of overall MSHR hits
system.cpu1.dcache.demand_mshr_misses::.cpu1.data       271476                       # number of demand (read+write) MSHR misses
system.cpu1.dcache.demand_mshr_misses::total       271476                       # number of demand (read+write) MSHR misses
system.cpu1.dcache.overall_mshr_misses::.cpu1.data       271533                       # number of overall MSHR misses
system.cpu1.dcache.overall_mshr_misses::total       271533                       # number of overall MSHR misses
system.cpu1.dcache.demand_mshr_miss_latency::.cpu1.data  20387765500                       # number of demand (read+write) MSHR miss cycles
system.cpu1.dcache.demand_mshr_miss_latency::total  20387765500                       # number of demand (read+write) MSHR miss cycles
system.cpu1.dcache.overall_mshr_miss_latency::.cpu1.data  20389230500                       # number of overall MSHR miss cycles
system.cpu1.dcache.overall_mshr_miss_latency::total  20389230500                       # number of overall MSHR miss cycles
system.cpu1.dcache.demand_mshr_miss_rate::.cpu1.data     0.133006                       # mshr miss rate for demand accesses
system.cpu1.dcache.demand_mshr_miss_rate::total     0.133006                       # mshr miss rate for demand accesses
system.cpu1.dcache.overall_mshr_miss_rate::.cpu1.data     0.133026                       # mshr miss rate for overall accesses
system.cpu1.dcache.overall_mshr_miss_rate::total     0.133026                       # mshr miss rate for overall accesses
system.cpu1.dcache.demand_avg_mshr_miss_latency::.cpu1.data 75099.697579                       # average overall mshr miss latency
system.cpu1.dcache.demand_avg_mshr_miss_latency::total 75099.697579                       # average overall mshr miss latency
system.cpu1.dcache.overall_avg_mshr_miss_latency::.cpu1.data 75089.328001                       # average overall mshr miss latency
system.cpu1.dcache.overall_avg_mshr_miss_latency::total 75089.328001                       # average overall mshr miss latency
system.cpu1.dcache.replacements                271516                       # number of replacements
system.cpu1.dcache.ReadReq_hits::.cpu1.data      1166410                       # number of ReadReq hits
system.cpu1.dcache.ReadReq_hits::total        1166410                       # number of ReadReq hits
system.cpu1.dcache.ReadReq_misses::.cpu1.data       261122                       # number of ReadReq misses
system.cpu1.dcache.ReadReq_misses::total       261122                       # number of ReadReq misses
system.cpu1.dcache.ReadReq_miss_latency::.cpu1.data  19944664000                       # number of ReadReq miss cycles
system.cpu1.dcache.ReadReq_miss_latency::total  19944664000                       # number of ReadReq miss cycles
system.cpu1.dcache.ReadReq_accesses::.cpu1.data      1427532                       # number of ReadReq accesses(hits+misses)
system.cpu1.dcache.ReadReq_accesses::total      1427532                       # number of ReadReq accesses(hits+misses)
system.cpu1.dcache.ReadReq_miss_rate::.cpu1.data     0.182918                       # miss rate for ReadReq accesses
system.cpu1.dcache.ReadReq_miss_rate::total     0.182918                       # miss rate for ReadReq accesses
system.cpu1.dcache.ReadReq_avg_miss_latency::.cpu1.data 76380.634340                       # average ReadReq miss latency
system.cpu1.dcache.ReadReq_avg_miss_latency::total 76380.634340                       # average ReadReq miss latency
system.cpu1.dcache.ReadReq_mshr_hits::.cpu1.data         1465                       # number of ReadReq MSHR hits
[...]
system.mem_ctrls.bytesPerActivate::640-767         2152      2.34%     79.12% # Bytes accessed per row activation
system.mem_ctrls.bytesPerActivate::768-895         1708      1.86%     80.98% # Bytes accessed per row activation
system.mem_ctrls.bytesPerActivate::896-1023         1629      1.77%     82.75% # Bytes accessed per row activation
system.mem_ctrls.bytesPerActivate::1024-1151        15845     17.25%    100.00% # Bytes accessed per row activation
system.mem_ctrls.bytesPerActivate::total        91850                       # Bytes accessed per row activation
system.mem_ctrls.rdPerTurnAround::samples         7613                       # Reads before turning the bus around for writes
system.mem_ctrls.rdPerTurnAround::mean      45.179955                       # Reads before turning the bus around for writes
system.mem_ctrls.rdPerTurnAround::gmean     24.836988                       # Reads before turning the bus around for writes
system.mem_ctrls.rdPerTurnAround::stdev    129.615631                       # Reads before turning the bus around for writes
system.mem_ctrls.rdPerTurnAround::0-127          7271     95.51%     95.51% # Reads before turning the bus around for writes
system.mem_ctrls.rdPerTurnAround::128-255          111      1.46%     96.97% # Reads before turning the bus around for writes
system.mem_ctrls.rdPerTurnAround::256-383           50      0.66%     97.62% # Reads before turning the bus around for writes
system.mem_ctrls.rdPerTurnAround::384-511           63      0.83%     98.45% # Reads before turning the bus around for writes
system.mem_ctrls.rdPerTurnAround::512-639           29      0.38%     98.83% # Reads before turning the bus around for writes
system.mem_ctrls.rdPerTurnAround::640-767           11      0.14%     98.98% # Reads before turning the bus around for writes
system.mem_ctrls.rdPerTurnAround::768-895           24      0.32%     99.29% # Reads before turning the bus around for writes
system.mem_ctrls.rdPerTurnAround::896-1023           19      0.25%     99.54% # Reads before turning the bus around for writes
system.mem_ctrls.rdPerTurnAround::1024-1151           12      0.16%     99.70% # Reads before turning the bus around for writes
system.mem_ctrls.rdPerTurnAround::1152-1279            9      0.12%     99.82% # Reads before turning the bus around for writes
system.mem_ctrls.rdPerTurnAround::1280-1407            1      0.01%     99.83% # Reads before turning the bus around for writes
system.mem_ctrls.rdPerTurnAround::1408-1535            6      0.08%     99.91% # Reads before turning the bus around for writes
system.mem_ctrls.rdPerTurnAround::1536-1663            1      0.01%     99.92% # Reads before turning the bus around for writes
system.mem_ctrls.rdPerTurnAround::1664-1791            2      0.03%     99.95% # Reads before turning the bus around for writes
system.mem_ctrls.rdPerTurnAround::1792-1919            2      0.03%     99.97% # Reads before turning the bus around for writes
system.mem_ctrls.rdPerTurnAround::2048-2175            1      0.01%     99.99% # Reads before turning the bus around for writes
system.mem_ctrls.rdPerTurnAround::2304-2431            1      0.01%    100.00% # Reads before turning the bus around for writes
system.mem_ctrls.rdPerTurnAround::total          7613                       # Reads before turning the bus around for writes
system.mem_ctrls.wrPerTurnAround::samples         7613                       # Writes before turning the bus around for reads
system.mem_ctrls.wrPerTurnAround::mean      16.690529                       # Writes before turning the bus around for reads
system.mem_ctrls.wrPerTurnAround::gmean     16.663532                       # Writes before turning the bus around for reads
system.mem_ctrls.wrPerTurnAround::stdev      0.963938                       # Writes before turning the bus around for reads
system.mem_ctrls.wrPerTurnAround::16             4872     64.00%     64.00% # Writes before turning the bus around for reads
system.mem_ctrls.wrPerTurnAround::17              422      5.54%     69.54% # Writes before turning the bus around for reads
system.mem_ctrls.wrPerTurnAround::18             2132     28.00%     97.54% # Writes before turning the bus around for reads
system.mem_ctrls.wrPerTurnAround::19              177      2.32%     99.87% # Writes before turning the bus around for reads
system.mem_ctrls.wrPerTurnAround::20               10      0.13%    100.00% # Writes before turning the bus around for reads
system.mem_ctrls.wrPerTurnAround::total          7613                       # Writes before turning the bus around for reads
system.mem_ctrls.bytesReadDRAM               22029056                       # Total number of bytes read from DRAM
system.mem_ctrls.bytesReadWrQ                  369344                       # Total number of bytes read from write queue
system.mem_ctrls.bytesWritten                 8132160                       # Total number of bytes written to DRAM
system.mem_ctrls.bytesReadSys                22398400                       # Total read bytes from the system interface side
system.mem_ctrls.bytesWrittenSys              8248000                       # Total written bytes from the system interface side
system.mem_ctrls.avgRdBW                       609.01                       # Average DRAM read bandwidth in MiByte/s
system.mem_ctrls.avgWrBW                       224.82                       # Average achieved write bandwidth in MiByte/s
system.mem_ctrls.avgRdBWSys                    619.22                       # Average system read bandwidth in MiByte/s
system.mem_ctrls.avgWrBWSys                    228.02                       # Average system write bandwidth in MiByte/s
system.mem_ctrls.peakBW                      12800.00                       # Theoretical peak bandwidth in MiByte/s
system.mem_ctrls.busUtil                         6.51                       # Data bus utilization in percentage
system.mem_ctrls.busUtilRead                     4.76                       # Data bus utilization in percentage for reads
system.mem_ctrls.busUtilWrite                    1.76                       # Data bus utilization in percentage for writes
system.mem_ctrls.totGap                   36171920500                       # Total gap between requests
system.mem_ctrls.avgGap                      75539.15                       # Average gap between requests
system.mem_ctrls.masterReadBytes::.cpu0.inst      2501248                       # Per-master bytes read from memory
system.mem_ctrls.masterReadBytes::.cpu0.data      2778944                       # Per-master bytes read from memory
system.mem_ctrls.masterReadBytes::.cpu1.inst       529280                       # Per-master bytes read from memory
system.mem_ctrls.masterReadBytes::.cpu1.data     16219584                       # Per-master bytes read from memory
system.mem_ctrls.masterWriteBytes::.writebacks      8132160                       # Per-master bytes write to memory
system.mem_ctrls.masterReadRate::.cpu0.inst 69148780.663085430861                       # Per-master bytes read from memory rate (Bytes/sec)
system.mem_ctrls.masterReadRate::.cpu0.data 76825884.171020731330                       # Per-master bytes read from memory rate (Bytes/sec)
system.mem_ctrls.masterReadRate::.cpu1.inst 14632322.196502648294                       # Per-master bytes read from memory rate (Bytes/sec)
system.mem_ctrls.masterReadRate::.cpu1.data 448401940.336380004883                       # Per-master bytes read from memory rate (Bytes/sec)
system.mem_ctrls.masterWriteRate::.writebacks 224819349.443604469299                       # Per-master bytes write to memory rate (Bytes/sec)
system.mem_ctrls.masterReadAccesses::.cpu0.inst        39082                       # Per-master read serviced memory accesses
system.mem_ctrls.masterReadAccesses::.cpu0.data        45519                       # Per-master read serviced memory accesses
system.mem_ctrls.masterReadAccesses::.cpu1.inst         8270                       # Per-master read serviced memory accesses
system.mem_ctrls.masterReadAccesses::.cpu1.data       257104                       # Per-master read serviced memory accesses
system.mem_ctrls.masterWriteAccesses::.writebacks       128875                       # Per-master write serviced memory accesses
system.mem_ctrls.masterReadTotalLat::.cpu0.inst   1400000000                       # Per-master read total memory access latency
system.mem_ctrls.masterReadTotalLat::.cpu0.data   1598079750                       # Per-master read total memory access latency
system.mem_ctrls.masterReadTotalLat::.cpu1.inst    261517000                       # Per-master read total memory access latency
system.mem_ctrls.masterReadTotalLat::.cpu1.data   6694297500                       # Per-master read total memory access latency
system.mem_ctrls.masterWriteTotalLat::.writebacks 882625930250                       # Per-master write total memory access latency
system.mem_ctrls.masterReadAvgLat::.cpu0.inst     35822.12                       # Per-master read average memory access latency
system.mem_ctrls.masterReadAvgLat::.cpu0.data     35107.97                       # Per-master read average memory access latency
system.mem_ctrls.masterReadAvgLat::.cpu1.inst     31622.37                       # Per-master read average memory access latency
system.mem_ctrls.masterReadAvgLat::.cpu1.data     26037.31                       # Per-master read average memory access latency
system.mem_ctrls.masterWriteAvgLat::.writebacks   6848697.81                       # Per-master write average memory access latency
system.mem_ctrls.pageHitRate                    80.51                       # Row buffer hit rate, read and write combined
system.mem_ctrls.rank1.actEnergy            319614960                       # Energy for activate commands per rank (pJ)
system.mem_ctrls.rank1.preEnergy            169864200                       # Energy for precharge commands per rank (pJ)
system.mem_ctrls.rank1.readEnergy          1230928860                       # Energy for read commands per rank (pJ)
system.mem_ctrls.rank1.writeEnergy          327111300                       # Energy for write commands per rank (pJ)
system.mem_ctrls.rank1.refreshEnergy     2855002800.000000                       # Energy for refresh commands per rank (pJ)
system.mem_ctrls.rank1.actBackEnergy      14962428180                       # Energy for active background per rank (pJ)
system.mem_ctrls.rank1.preBackEnergy       1290099360                       # Energy for precharge background per rank (pJ)
system.mem_ctrls.rank1.actPowerDownEnergy            0                       # Energy for active power-down per rank (pJ)
system.mem_ctrls.rank1.prePowerDownEnergy            0                       # Energy for precharge power-down per rank (pJ)
system.mem_ctrls.rank1.selfRefreshEnergy            0                       # Energy for self refresh per rank (pJ)
system.mem_ctrls.rank1.totalEnergy        21155049660                       # Total energy per rank (pJ)
system.mem_ctrls.rank1.averagePower        584.846400                       # Core power per rank (mW)
system.mem_ctrls.rank1.totalIdleTime                0                       # Total Idle time Per DRAM Rank
system.mem_ctrls.rank1.memoryStateTime::IDLE   3205508250                       # Time in different power states
system.mem_ctrls.rank1.memoryStateTime::REF   1207700000                       # Time in different power states
system.mem_ctrls.rank1.memoryStateTime::SREF            0                       # Time in different power states
system.mem_ctrls.rank1.memoryStateTime::PRE_PDN            0                       # Time in different power states
system.mem_ctrls.rank1.memoryStateTime::ACT  31758767250                       # Time in different power states
system.mem_ctrls.rank1.memoryStateTime::ACT_PDN            0                       # Time in different power states
system.mem_ctrls.rank0.actEnergy            336236880                       # Energy for activate commands per rank (pJ)
system.mem_ctrls.rank0.preEnergy            178706550                       # Energy for precharge commands per rank (pJ)
system.mem_ctrls.rank0.readEnergy          1226687700                       # Energy for read commands per rank (pJ)
system.mem_ctrls.rank0.writeEnergy          336168000                       # Energy for write commands per rank (pJ)
system.mem_ctrls.rank0.refreshEnergy     2855002800.000000                       # Energy for refresh commands per rank (pJ)
system.mem_ctrls.rank0.actBackEnergy      14900546700                       # Energy for active background per rank (pJ)
system.mem_ctrls.rank0.preBackEnergy       1342210080                       # Energy for precharge background per rank (pJ)
system.mem_ctrls.rank0.actPowerDownEnergy            0                       # Energy for active power-down per rank (pJ)
system.mem_ctrls.rank0.prePowerDownEnergy            0                       # Energy for precharge power-down per rank (pJ)
system.mem_ctrls.rank0.selfRefreshEnergy            0                       # Energy for self refresh per rank (pJ)
system.mem_ctrls.rank0.totalEnergy        21175558710                       # Total energy per rank (pJ)
system.mem_ctrls.rank0.averagePower        585.413387                       # Core power per rank (mW)
system.mem_ctrls.rank0.totalIdleTime                0                       # Total Idle time Per DRAM Rank
system.mem_ctrls.rank0.memoryStateTime::IDLE   3334141000                       # Time in different power states
system.mem_ctrls.rank0.memoryStateTime::REF   1207700000                       # Time in different power states
system.mem_ctrls.rank0.memoryStateTime::SREF            0                       # Time in different power states
system.mem_ctrls.rank0.memoryStateTime::PRE_PDN            0                       # Time in different power states
system.mem_ctrls.rank0.memoryStateTime::ACT  31630134500                       # Time in different power states
system.mem_ctrls.rank0.memoryStateTime::ACT_PDN            0                       # Time in different power states
system.mem_ctrls.power_state.pwrStateResidencyTicks::UNDEFINED  36171975500                       # Cumulative time (in ticks) in various power states
system.cpu_clk_domain.clock                       500                       # Clock period in ticks
system.tol2bus.trans_dist::ReadResp           1758268                       # Transaction distribution
system.tol2bus.trans_dist::WritebackDirty       426889                       # Transaction distribution
system.tol2bus.trans_dist::WritebackClean      1212833                       # Transaction distribution
system.tol2bus.trans_dist::CleanEvict          582820                       # Transaction distribution
system.tol2bus.trans_dist::ReadExReq           112941                       # Transaction distribution
system.tol2bus.trans_dist::ReadExResp          112941                       # Transaction distribution
system.tol2bus.trans_dist::ReadCleanReq       1212866                       # Transaction distribution
system.tol2bus.trans_dist::ReadSharedReq       545404                       # Transaction distribution
system.tol2bus.pkt_count_system.cpu0.icache.mem_side::system.l2.cpu_side      3422631                       # Packet count per connected master and slave (bytes)
system.tol2bus.pkt_count_system.cpu0.dcache.mem_side::system.l2.cpu_side      1160420                       # Packet count per connected master and slave (bytes)
system.tol2bus.pkt_count_system.cpu1.icache.mem_side::system.l2.cpu_side       215933                       # Packet count per connected master and slave (bytes)
system.tol2bus.pkt_count_system.cpu1.dcache.mem_side::system.l2.cpu_side       814581                       # Packet count per connected master and slave (bytes)
system.tol2bus.pkt_count::total               5613565                       # Packet count per connected master and slave (bytes)
system.tol2bus.pkt_size_system.cpu0.icache.mem_side::system.l2.cpu_side    146031872                       # Cumulative packet size per connected master and slave (bytes)
system.tol2bus.pkt_size_system.cpu0.dcache.mem_side::system.l2.cpu_side     36476288                       # Cumulative packet size per connected master and slave (bytes)
system.tol2bus.pkt_size_system.cpu1.icache.mem_side::system.l2.cpu_side      9212800                       # Cumulative packet size per connected master and slave (bytes)
system.tol2bus.pkt_size_system.cpu1.dcache.mem_side::system.l2.cpu_side     24730624                       # Cumulative packet size per connected master and slave (bytes)
system.tol2bus.pkt_size::total              216451584                       # Cumulative packet size per connected master and slave (bytes)
system.tol2bus.snoops                          351397                       # Total snoops (count)
system.tol2bus.snoopTraffic                   8248000                       # Total snoop traffic (bytes)
system.tol2bus.snoop_fanout::samples          2222608                       # Request fanout histogram
system.tol2bus.snoop_fanout::mean            0.001126                       # Request fanout histogram
system.tol2bus.snoop_fanout::stdev           0.033533                       # Request fanout histogram
system.tol2bus.snoop_fanout::underflows             0      0.00%      0.00% # Request fanout histogram
system.tol2bus.snoop_fanout::0                2220106     99.89%     99.89% # Request fanout histogram
system.tol2bus.snoop_fanout::1                   2502      0.11%    100.00% # Request fanout histogram
system.tol2bus.snoop_fanout::2                      0      0.00%    100.00% # Request fanout histogram
system.tol2bus.snoop_fanout::3                      0      0.00%    100.00% # Request fanout histogram
system.tol2bus.snoop_fanout::4                      0      0.00%    100.00% # Request fanout histogram
system.tol2bus.snoop_fanout::5                      0      0.00%    100.00% # Request fanout histogram
system.tol2bus.snoop_fanout::6                      0      0.00%    100.00% # Request fanout histogram
system.tol2bus.snoop_fanout::7                      0      0.00%    100.00% # Request fanout histogram
system.tol2bus.snoop_fanout::8                      0      0.00%    100.00% # Request fanout histogram
system.tol2bus.snoop_fanout::overflows              0      0.00%    100.00% # Request fanout histogram
system.tol2bus.snoop_fanout::min_value              0                       # Request fanout histogram
system.tol2bus.snoop_fanout::max_value              1                       # Request fanout histogram
system.tol2bus.snoop_fanout::total            2222608                       # Request fanout histogram
system.tol2bus.reqLayer0.occupancy         3382025000                       # Layer occupancy (ticks)
system.tol2bus.reqLayer0.utilization              9.3                       # Layer utilization (%)
system.tol2bus.respLayer5.occupancy         410131322                       # Layer occupancy (ticks)
system.tol2bus.respLayer5.utilization             1.1                       # Layer utilization (%)
system.tol2bus.respLayer4.occupancy         108082783                       # Layer occupancy (ticks)
system.tol2bus.respLayer4.utilization             0.3                       # Layer utilization (%)
system.tol2bus.respLayer1.occupancy         580314806                       # Layer occupancy (ticks)
system.tol2bus.respLayer1.utilization             1.6                       # Layer utilization (%)
system.tol2bus.respLayer0.occupancy        1711374896                       # Layer occupancy (ticks)
system.tol2bus.respLayer0.utilization             4.7                       # Layer utilization (%)
system.tol2bus.power_state.pwrStateResidencyTicks::UNDEFINED  36171975500                       # Cumulative time (in ticks) in various power states

---------- End Simulation Statistics   ----------
