
---------- Begin Simulation Statistics ----------
final_tick                                33396945000                       # Number of ticks from beginning of simulation (restored from checkpoints and never reset)
host_inst_rate                                 188418                       # Simulator instruction rate (inst/s)
host_mem_usage                                4425528                       # Number of bytes of host memory used
host_op_rate                                   353527                       # Simulator op (including micro ops) rate (op/s)
host_seconds                                    70.90                       # Real time elapsed on the host
host_tick_rate                              471043730                       # Simulator tick rate (ticks/s)
sim_freq                                 1000000000000                       # Frequency of simulated ticks
sim_insts                                    13358811                       # Number of instructions simulated
sim_ops                                      25065011                       # Number of ops (including micro ops) simulated
sim_seconds                                  0.033397                       # Number of seconds simulated
sim_ticks                                 33396945000                       # Number of ticks simulated
system.cpu0.branchPred.BTBCorrect                   0                       # Number of correct BTB predictions (this stat may not work properly.
system.cpu0.branchPred.BTBHitPct                  nan                       # BTB Hit Percentage
system.cpu0.branchPred.BTBHits                      0                       # Number of BTB hits
system.cpu0.branchPred.BTBLookups                   0                       # Number of BTB lookups
system.cpu0.branchPred.RASInCorrect                 0                       # Number of incorrect RAS predictions.
system.cpu0.branchPred.condIncorrect               30                       # Number of conditional branches incorrect
system.cpu0.branchPred.condPredicted               65                       # Number of conditional branches predicted
system.cpu0.branchPred.indirectHits                 0                       # Number of indirect target hits.
system.cpu0.branchPred.indirectLookups             31                       # Number of indirect predictor lookups.
system.cpu0.branchPred.indirectMisses              31                       # Number of indirect misses.
system.cpu0.branchPred.lookups                     65                       # Number of BP lookups
system.cpu0.branchPred.usedRAS                      0                       # Number of times the RAS was used to get a target.
system.cpu0.branchPredindirectMispredicted           18                       # Number of mispredicted indirect branches.
system.cpu0.committedInsts                    3358811                       # Number of instructions committed
system.cpu0.committedOps                      6148631                       # Number of ops (including micro ops) committed
system.cpu0.cpi                             19.886146                       # CPI: cycles per instruction
system.cpu0.discardedOps                      1946419                       # Number of ops (including micro ops) which were discarded before commit
system.cpu0.dtb.rdAccesses                     554648                       # TLB accesses on read requests
system.cpu0.dtb.rdMisses                         2035                       # TLB misses on read requests
system.cpu0.dtb.wrAccesses                    2899123                       # TLB accesses on write requests
system.cpu0.dtb.wrMisses                        10889                       # TLB misses on write requests
system.cpu0.fetch2.amo_instructions                 0                       # Number of memory atomic instructions successfully decoded
system.cpu0.fetch2.fp_instructions                  0                       # Number of floating point instructions successfully decoded
system.cpu0.fetch2.int_instructions                 8                       # Number of integer instructions successfully decoded
system.cpu0.fetch2.load_instructions                0                       # Number of memory load instructions successfully decoded
system.cpu0.fetch2.store_instructions               0                       # Number of memory store instructions successfully decoded
system.cpu0.fetch2.vec_instructions                 0                       # Number of SIMD instructions successfully decoded
system.cpu0.idleCycles                       56702619                       # Total number of cycles that the object has spent stopped
system.cpu0.ipc                              0.050286                       # IPC: instructions per cycle
system.cpu0.itb.rdAccesses                          0                       # TLB accesses on read requests
system.cpu0.itb.rdMisses                            0                       # TLB misses on read requests
system.cpu0.itb.wrAccesses                    1258766                       # TLB accesses on write requests
system.cpu0.itb.wrMisses                          182                       # TLB misses on write requests
system.cpu0.numCycles                        66793805                       # number of cpu cycles simulated
system.cpu0.numFetchSuspends                        0                       # Number of times Execute suspended instruction fetching
system.cpu0.numWorkItemsCompleted                   0                       # number of work items this cpu completed
system.cpu0.numWorkItemsStarted                     0                       # number of work items this cpu started
system.cpu0.op_class_0::No_OpClass               2098      0.03%      0.03% # Class of committed instruction
system.cpu0.op_class_0::IntAlu                3042164     49.48%     49.51% # Class of committed instruction
system.cpu0.op_class_0::IntMult                   641      0.01%     49.52% # Class of committed instruction
system.cpu0.op_class_0::IntDiv                   1317      0.02%     49.54% # Class of committed instruction
system.cpu0.op_class_0::FloatAdd                  189      0.00%     49.55% # Class of committed instruction
system.cpu0.op_class_0::FloatCmp                    0      0.00%     49.55% # Class of committed instruction
system.cpu0.op_class_0::FloatCvt                   96      0.00%     49.55% # Class of committed instruction
system.cpu0.op_class_0::FloatMult                   0      0.00%     49.55% # Class of committed instruction
system.cpu0.op_class_0::FloatMultAcc                0      0.00%     49.55% # Class of committed instruction
system.cpu0.op_class_0::FloatDiv                    0      0.00%     49.55% # Class of committed instruction
system.cpu0.op_class_0::FloatMisc                   0      0.00%     49.55% # Class of committed instruction
system.cpu0.op_class_0::FloatSqrt                   0      0.00%     49.55% # Class of committed instruction
system.cpu0.op_class_0::SimdAdd                   916      0.01%     49.56% # Class of committed instruction
system.cpu0.op_class_0::SimdAddAcc                  0      0.00%     49.56% # Class of committed instruction
system.cpu0.op_class_0::SimdAlu                   943      0.02%     49.58% # Class of committed instruction
system.cpu0.op_class_0::SimdCmp                     0      0.00%     49.58% # Class of committed instruction
system.cpu0.op_class_0::SimdCvt                  1230      0.02%     49.60% # Class of committed instruction
system.cpu0.op_class_0::SimdMisc                  843      0.01%     49.61% # Class of committed instruction
system.cpu0.op_class_0::SimdMult                    0      0.00%     49.61% # Class of committed instruction
system.cpu0.op_class_0::SimdMultAcc                 0      0.00%     49.61% # Class of committed instruction
system.cpu0.op_class_0::SimdShift                 388      0.01%     49.62% # Class of committed instruction
system.cpu0.op_class_0::SimdShiftAcc                0      0.00%     49.62% # Class of committed instruction
system.cpu0.op_class_0::SimdDiv                     0      0.00%     49.62% # Class of committed instruction
system.cpu0.op_class_0::SimdSqrt                    0      0.00%     49.62% # Class of committed instruction
system.cpu0.op_class_0::SimdFloatAdd                0      0.00%     49.62% # Class of committed instruction
system.cpu0.op_class_0::SimdFloatAlu                0      0.00%     49.62% # Class of committed instruction
system.cpu0.op_class_0::SimdFloatCmp                0      0.00%     49.62% # Class of committed instruction
system.cpu0.op_class_0::SimdFloatCvt                0      0.00%     49.62% # Class of committed instruction
system.cpu0.op_class_0::SimdFloatDiv                0      0.00%     49.62% # Class of committed instruction
system.cpu0.op_class_0::SimdFloatMisc               0      0.00%     49.62% # Class of committed instruction
system.cpu0.op_class_0::SimdFloatMult               0      0.00%     49.62% # Class of committed instruction
system.cpu0.op_class_0::SimdFloatMultAcc            0      0.00%     49.62% # Class of committed instruction
system.cpu0.op_class_0::SimdFloatSqrt               0      0.00%     49.62% # Class of committed instruction
system.cpu0.op_class_0::SimdReduceAdd               0      0.00%     49.62% # Class of committed instruction
system.cpu0.op_class_0::SimdReduceAlu               0      0.00%     49.62% # Class of committed instruction
system.cpu0.op_class_0::SimdReduceCmp               0      0.00%     49.62% # Class of committed instruction
system.cpu0.op_class_0::SimdFloatReduceAdd            0      0.00%     49.62% # Class of committed instruction
system.cpu0.op_class_0::SimdFloatReduceCmp            0      0.00%     49.62% # Class of committed instruction
system.cpu0.op_class_0::SimdAes                     0      0.00%     49.62% # Class of committed instruction
system.cpu0.op_class_0::SimdAesMix                  0      0.00%     49.62% # Class of committed instruction
system.cpu0.op_class_0::SimdSha1Hash                0      0.00%     49.62% # Class of committed instruction
system.cpu0.op_class_0::SimdSha1Hash2               0      0.00%     49.62% # Class of committed instruction
system.cpu0.op_class_0::SimdSha256Hash              0      0.00%     49.62% # Class of committed instruction
system.cpu0.op_class_0::SimdSha256Hash2             0      0.00%     49.62% # Class of committed instruction
system.cpu0.op_class_0::SimdShaSigma2               0      0.00%     49.62% # Class of committed instruction
system.cpu0.op_class_0::SimdShaSigma3               0      0.00%     49.62% # Class of committed instruction
system.cpu0.op_class_0::SimdPredAlu                 0      0.00%     49.62% # Class of committed instruction
system.cpu0.op_class_0::MemRead                199681      3.25%     52.87% # Class of committed instruction
system.cpu0.op_class_0::MemWrite               133412      2.17%     55.04% # Class of committed instruction
system.cpu0.op_class_0::FloatMemRead             1610      0.03%     55.06% # Class of committed instruction
system.cpu0.op_class_0::FloatMemWrite         2763103     44.94%    100.00% # Class of committed instruction
system.cpu0.op_class_0::IprAccess                   0      0.00%    100.00% # Class of committed instruction
system.cpu0.op_class_0::InstPrefetch                0      0.00%    100.00% # Class of committed instruction
system.cpu0.op_class_0::total                 6148631                       # Class of committed instruction
system.cpu0.tickCycles                       10091186                       # Number of cycles that the object actually ticked
system.cpu0.workload.numSyscalls                   30                       # Number of system calls
system.cpu1.branchPred.BTBCorrect                   0                       # Number of correct BTB predictions (this stat may not work properly.
system.cpu1.branchPred.BTBHitPct                  nan                       # BTB Hit Percentage
system.cpu1.branchPred.BTBHits                      0                       # Number of BTB hits
system.cpu1.branchPred.BTBLookups                   0                       # Number of BTB lookups
system.cpu1.branchPred.RASInCorrect                 0                       # Number of incorrect RAS predictions.
system.cpu1.branchPred.condIncorrect               39                       # Number of conditional branches incorrect
system.cpu1.branchPred.condPredicted               80                       # Number of conditional branches predicted
system.cpu1.branchPred.indirectHits                 0                       # Number of indirect target hits.
system.cpu1.branchPred.indirectLookups             24                       # Number of indirect predictor lookups.
system.cpu1.branchPred.indirectMisses              24                       # Number of indirect misses.
system.cpu1.branchPred.lookups                     80                       # Number of BP lookups
system.cpu1.branchPred.usedRAS                      0                       # Number of times the RAS was used to get a target.
system.cpu1.branchPredindirectMispredicted           15                       # Number of mispredicted indirect branches.
system.cpu1.committedInsts                   10000000                       # Number of instructions committed
system.cpu1.committedOps                     18916380                       # Number of ops (including micro ops) committed
system.cpu1.cpi                              6.679389                       # CPI: cycles per instruction
system.cpu1.discardedOps                      3503881                       # Number of ops (including micro ops) which were discarded before commit
system.cpu1.dtb.rdAccesses                    2501867                       # TLB accesses on read requests
system.cpu1.dtb.rdMisses                        32882                       # TLB misses on read requests
system.cpu1.dtb.wrAccesses                    1828767                       # TLB accesses on write requests
system.cpu1.dtb.wrMisses                         1221                       # TLB misses on write requests
system.cpu1.fetch2.amo_instructions                 0                       # Number of memory atomic instructions successfully decoded
system.cpu1.fetch2.fp_instructions                  0                       # Number of floating point instructions successfully decoded
system.cpu1.fetch2.int_instructions                 8                       # Number of integer instructions successfully decoded
system.cpu1.fetch2.load_instructions                0                       # Number of memory load instructions successfully decoded
system.cpu1.fetch2.store_instructions               0                       # Number of memory store instructions successfully decoded
system.cpu1.fetch2.vec_instructions                 0                       # Number of SIMD instructions successfully decoded
system.cpu1.idleCycles                       34287380                       # Total number of cycles that the object has spent stopped
system.cpu1.ipc                              0.149714                       # IPC: instructions per cycle
system.cpu1.itb.rdAccesses                          0                       # TLB accesses on read requests
system.cpu1.itb.rdMisses                            0                       # TLB misses on read requests
system.cpu1.itb.wrAccesses                    3366709                       # TLB accesses on write requests
system.cpu1.itb.wrMisses                          209                       # TLB misses on write requests
system.cpu1.numCycles                        66793890                       # number of cpu cycles simulated
system.cpu1.numFetchSuspends                        0                       # Number of times Execute suspended instruction fetching
system.cpu1.numWorkItemsCompleted                   0                       # number of work items this cpu completed
system.cpu1.numWorkItemsStarted                     0                       # number of work items this cpu started
system.cpu1.op_class_0::No_OpClass              38775      0.20%      0.20% # Class of committed instruction
system.cpu1.op_class_0::IntAlu               14860976     78.56%     78.77% # Class of committed instruction
system.cpu1.op_class_0::IntMult                 41062      0.22%     78.98% # Class of committed instruction
system.cpu1.op_class_0::IntDiv                   1365      0.01%     78.99% # Class of committed instruction
system.cpu1.op_class_0::FloatAdd                24884      0.13%     79.12% # Class of committed instruction
system.cpu1.op_class_0::FloatCmp                    0      0.00%     79.12% # Class of committed instruction
system.cpu1.op_class_0::FloatCvt                  160      0.00%     79.12% # Class of committed instruction
system.cpu1.op_class_0::FloatMult                   0      0.00%     79.12% # Class of committed instruction
system.cpu1.op_class_0::FloatMultAcc                0      0.00%     79.12% # Class of committed instruction
system.cpu1.op_class_0::FloatDiv                    0      0.00%     79.12% # Class of committed instruction
system.cpu1.op_class_0::FloatMisc                   0      0.00%     79.12% # Class of committed instruction
system.cpu1.op_class_0::FloatSqrt                   0      0.00%     79.12% # Class of committed instruction
system.cpu1.op_class_0::SimdAdd                   946      0.01%     79.13% # Class of committed instruction
system.cpu1.op_class_0::SimdAddAcc                  0      0.00%     79.13% # Class of committed instruction
system.cpu1.op_class_0::SimdAlu                  1027      0.01%     79.13% # Class of committed instruction
system.cpu1.op_class_0::SimdCmp                    12      0.00%     79.13% # Class of committed instruction
system.cpu1.op_class_0::SimdCvt                 27378      0.14%     79.28% # Class of committed instruction
system.cpu1.op_class_0::SimdMisc               112708      0.60%     79.87% # Class of committed instruction
system.cpu1.op_class_0::SimdMult                    0      0.00%     79.87% # Class of committed instruction
system.cpu1.op_class_0::SimdMultAcc                 0      0.00%     79.87% # Class of committed instruction
system.cpu1.op_class_0::SimdShift                 446      0.00%     79.88% # Class of committed instruction
system.cpu1.op_class_0::SimdShiftAcc                0      0.00%     79.88% # Class of committed instruction
system.cpu1.op_class_0::SimdDiv                     0      0.00%     79.88% # Class of committed instruction
system.cpu1.op_class_0::SimdSqrt                    0      0.00%     79.88% # Class of committed instruction
system.cpu1.op_class_0::SimdFloatAdd                0      0.00%     79.88% # Class of committed instruction
system.cpu1.op_class_0::SimdFloatAlu                0      0.00%     79.88% # Class of committed instruction
system.cpu1.op_class_0::SimdFloatCmp                0      0.00%     79.88% # Class of committed instruction
system.cpu1.op_class_0::SimdFloatCvt                0      0.00%     79.88% # Class of committed instruction
system.cpu1.op_class_0::SimdFloatDiv                0      0.00%     79.88% # Class of committed instruction
system.cpu1.op_class_0::SimdFloatMisc               0      0.00%     79.88% # Class of committed instruction
system.cpu1.op_class_0::SimdFloatMult               0      0.00%     79.88% # Class of committed instruction
system.cpu1.op_class_0::SimdFloatMultAcc            0      0.00%     79.88% # Class of committed instruction
system.cpu1.op_class_0::SimdFloatSqrt               0      0.00%     79.88% # Class of committed instruction
system.cpu1.op_class_0::SimdReduceAdd               0      0.00%     79.88% # Class of committed instruction
system.cpu1.op_class_0::SimdReduceAlu               0      0.00%     79.88% # Class of committed instruction
system.cpu1.op_class_0::SimdReduceCmp               0      0.00%     79.88% # Class of committed instruction
system.cpu1.op_class_0::SimdFloatReduceAdd            0      0.00%     79.88% # Class of committed instruction
system.cpu1.op_class_0::SimdFloatReduceCmp            0      0.00%     79.88% # Class of committed instruction
system.cpu1.op_class_0::SimdAes                     0      0.00%     79.88% # Class of committed instruction
system.cpu1.op_class_0::SimdAesMix                  0      0.00%     79.88% # Class of committed instruction
system.cpu1.op_class_0::SimdSha1Hash                0      0.00%     79.88% # Class of committed instruction
system.cpu1.op_class_0::SimdSha1Hash2               0      0.00%     79.88% # Class of committed instruction
system.cpu1.op_class_0::SimdSha256Hash              0      0.00%     79.88% # Class of committed instruction
system.cpu1.op_class_0::SimdSha256Hash2             0      0.00%     79.88% # Class of committed instruction
system.cpu1.op_class_0::SimdShaSigma2               0      0.00%     79.88% # Class of committed instruction
system.cpu1.op_class_0::SimdShaSigma3               0      0.00%     79.88% # Class of committed instruction
system.cpu1.op_class_0::SimdPredAlu                 0      0.00%     79.88% # Class of committed instruction
system.cpu1.op_class_0::MemRead               2046688     10.82%     90.70% # Class of committed instruction
system.cpu1.op_class_0::MemWrite              1656607      8.76%     99.45% # Class of committed instruction
system.cpu1.op_class_0::FloatMemRead            64978      0.34%     99.80% # Class of committed instruction
system.cpu1.op_class_0::FloatMemWrite           38368      0.20%    100.00% # Class of committed instruction
system.cpu1.op_class_0::IprAccess                   0      0.00%    100.00% # Class of committed instruction
system.cpu1.op_class_0::InstPrefetch                0      0.00%    100.00% # Class of committed instruction
system.cpu1.op_class_0::total                18916380                       # Class of committed instruction
system.cpu1.tickCycles                       32506510                       # Number of cycles that the object actually ticked
system.cpu1.workload.numSyscalls                   39                       # Number of system calls
system.membus.snoop_filter.hit_multi_requests            0                       # Number of requests hitting in the snoop filter with multiple (>1) holders of the requested data.
system.membus.snoop_filter.hit_multi_snoops            0                       # Number of snoops hitting in the snoop filter with multiple (>1) holders of the requested data.
system.membus.snoop_filter.hit_single_requests       396970                       # Number of requests hitting in the snoop filter with a single holder of the requested data.
system.membus.snoop_filter.hit_single_snoops            0                       # Number of snoops hitting in the snoop filter with a single holder of the requested data.
system.membus.snoop_filter.tot_requests        794982                       # Total number of requests made to the snoop filter.
system.membus.snoop_filter.tot_snoops               0                       # Total number of snoops made to the snoop filter.
system.tol2bus.snoop_filter.hit_multi_requests            0                       # Number of requests hitting in the snoop filter with multiple (>1) holders of the requested data.
system.tol2bus.snoop_filter.hit_multi_snoops            0                       # Number of snoops hitting in the snoop filter with multiple (>1) holders of the requested data.
system.tol2bus.snoop_filter.hit_single_requests      2651035                       # Number of requests hitting in the snoop filter with a single holder of the requested data.
system.tol2bus.snoop_filter.hit_single_snoops         1539                       # Number of snoops hitting in the snoop filter with a single holder of the requested data.
system.tol2bus.snoop_filter.tot_requests      5302135                       # Total number of requests made to the snoop filter.
system.tol2bus.snoop_filter.tot_snoops           1539                       # Total number of snoops made to the snoop filter.
system.membus.trans_dist::ReadResp              16381                       # Transaction distribution
system.membus.trans_dist::WritebackDirty       385734                       # Transaction distribution
system.membus.trans_dist::CleanEvict            11236                       # Transaction distribution
system.membus.trans_dist::ReadExReq            381631                       # Transaction distribution
system.membus.trans_dist::ReadExResp           381630                       # Transaction distribution
system.membus.trans_dist::ReadSharedReq         16381                       # Transaction distribution
system.membus.pkt_count_system.l2.mem_side::system.mem_ctrls.port      1192993                       # Packet count per connected master and slave (bytes)
system.membus.pkt_count_system.l2.mem_side::total      1192993                       # Packet count per connected master and slave (bytes)
system.membus.pkt_count::total                1192993                       # Packet count per connected master and slave (bytes)
system.membus.pkt_size_system.l2.mem_side::system.mem_ctrls.port     50159680                       # Cumulative packet size per connected master and slave (bytes)
system.membus.pkt_size_system.l2.mem_side::total     50159680                       # Cumulative packet size per connected master and slave (bytes)
system.membus.pkt_size::total                50159680                       # Cumulative packet size per connected master and slave (bytes)
system.membus.snoops                                0                       # Total snoops (count)
system.membus.snoopTraffic                          0                       # Total snoop traffic (bytes)
system.membus.snoop_fanout::samples            398012                       # Request fanout histogram
system.membus.snoop_fanout::mean                    0                       # Request fanout histogram
system.membus.snoop_fanout::stdev                   0                       # Request fanout histogram
system.membus.snoop_fanout::underflows              0      0.00%      0.00% # Request fanout histogram
system.membus.snoop_fanout::0                  398012    100.00%    100.00% # Request fanout histogram
system.membus.snoop_fanout::1                       0      0.00%    100.00% # Request fanout histogram
system.membus.snoop_fanout::overflows               0      0.00%    100.00% # Request fanout histogram
system.membus.snoop_fanout::min_value               0                       # Request fanout histogram
system.membus.snoop_fanout::max_value               0                       # Request fanout histogram
system.membus.snoop_fanout::total              398012                       # Request fanout histogram
system.membus.reqLayer4.occupancy          2507295000                       # Layer occupancy (ticks)
system.membus.reqLayer4.utilization               7.5                       # Layer utilization (%)
system.membus.respLayer1.occupancy         2103020750                       # Layer occupancy (ticks)
system.membus.respLayer1.utilization              6.3                       # Layer utilization (%)
system.membus.power_state.pwrStateResidencyTicks::UNDEFINED  33396945000                       # Cumulative time (in ticks) in various power states
system.voltage_domain.voltage                       1                       # Voltage in Volts
system.clk_domain.clock                          1000                       # Clock period in ticks
system.cpu0.icache.demand_hits::.cpu0.inst      1249888                       # number of demand (read+write) hits
system.cpu0.icache.demand_hits::total         1249888                       # number of demand (read+write) hits
system.cpu0.icache.overall_hits::.cpu0.inst      1249888                       # number of overall hits
system.cpu0.icache.overall_hits::total        1249888                       # number of overall hits
system.cpu0.icache.demand_misses::.cpu0.inst         8835                       # number of demand (read+write) misses
system.cpu0.icache.demand_misses::total          8835                       # number of demand (read+write) misses
system.cpu0.icache.overall_misses::.cpu0.inst         8835                       # number of overall misses
system.cpu0.icache.overall_misses::total         8835                       # number of overall misses
system.cpu0.icache.demand_miss_latency::.cpu0.inst    290372000                       # number of demand (read+write) miss cycles
system.cpu0.icache.demand_miss_latency::total    290372000                       # number of demand (read+write) miss cycles
system.cpu0.icache.overall_miss_latency::.cpu0.inst    290372000                       # number of overall miss cycles
system.cpu0.icache.overall_miss_latency::total    290372000                       # number of overall miss cycles
system.cpu0.icache.demand_accesses::.cpu0.inst      1258723                       # number of demand (read+write) accesses
system.cpu0.icache.demand_accesses::total      1258723                       # number of demand (read+write) accesses
system.cpu0.icache.overall_accesses::.cpu0.inst      1258723                       # number of overall (read+write) accesses
system.cpu0.icache.overall_accesses::total      1258723                       # number of overall (read+write) accesses
system.cpu0.icache.demand_miss_rate::.cpu0.inst     0.007019                       # miss rate for demand accesses
system.cpu0.icache.demand_miss_rate::total     0.007019                       # miss rate for demand accesses
system.cpu0.icache.overall_miss_rate::.cpu0.inst     0.007019                       # miss rate for overall accesses
system.cpu0.icache.overall_miss_rate::total     0.007019                       # miss rate for overall accesses
system.cpu0.icache.demand_avg_miss_latency::.cpu0.inst 32866.100736                       # average overall miss latency
system.cpu0.icache.demand_avg_miss_latency::total 32866.100736                       # average overall miss latency
system.cpu0.icache.overall_avg_miss_latency::.cpu0.inst 32866.100736                       # average overall miss latency
system.cpu0.icache.overall_avg_miss_latency::total 32866.100736                       # average overall miss latency
system.cpu0.icache.blocked_cycles::no_mshrs            0                       # number of cycles access was blocked
system.cpu0.icache.blocked_cycles::no_targets            0                       # number of cycles access was blocked
system.cpu0.icache.blocked::no_mshrs                0                       # number of cycles access was blocked
system.cpu0.icache.blocked::no_targets              0                       # number of cycles access was blocked
system.cpu0.icache.avg_blocked_cycles::no_mshrs          nan                       # average number of cycles each access was blocked
system.cpu0.icache.avg_blocked_cycles::no_targets          nan                       # average number of cycles each access was blocked
system.cpu0.icache.writebacks::.writebacks         8819                       # number of writebacks
system.cpu0.icache.writebacks::total             8819                       # number of writebacks
system.cpu0.icache.demand_mshr_misses::.cpu0.inst         8835                       # number of demand (read+write) MSHR misses
system.cpu0.icache.demand_mshr_misses::total         8835                       # number of demand (read+write) MSHR misses
system.cpu0.icache.overall_mshr_misses::.cpu0.inst         8835                       # number of overall MSHR misses
system.cpu0.icache.overall_mshr_misses::total         8835                       # number of overall MSHR misses
system.cpu0.icache.demand_mshr_miss_latency::.cpu0.inst    281537000                       # number of demand (read+write) MSHR miss cycles
system.cpu0.icache.demand_mshr_miss_latency::total    281537000                       # number of demand (read+write) MSHR miss cycles
system.cpu0.icache.overall_mshr_miss_latency::.cpu0.inst    281537000                       # number of overall MSHR miss cycles
system.cpu0.icache.overall_mshr_miss_latency::total    281537000                       # number of overall MSHR miss cycles
system.cpu0.icache.demand_mshr_miss_rate::.cpu0.inst     0.007019                       # mshr miss rate for demand accesses
system.cpu0.icache.demand_mshr_miss_rate::total     0.007019                       # mshr miss rate for demand accesses
system.cpu0.icache.overall_mshr_miss_rate::.cpu0.inst     0.007019                       # mshr miss rate for overall accesses
system.cpu0.icache.overall_mshr_miss_rate::total     0.007019                       # mshr miss rate for overall accesses
system.cpu0.icache.demand_avg_mshr_miss_latency::.cpu0.inst 31866.100736                       # average overall mshr miss latency
system.cpu0.icache.demand_avg_mshr_miss_latency::total 31866.100736                       # average overall mshr miss latency
system.cpu0.icache.overall_avg_mshr_miss_latency::.cpu0.inst 31866.100736                       # average overall mshr miss latency
system.cpu0.icache.overall_avg_mshr_miss_latency::total 31866.100736                       # average overall mshr miss latency
system.cpu0.icache.replacements                  8819                       # number of replacements
system.cpu0.icache.ReadReq_hits::.cpu0.inst      1249888                       # number of ReadReq hits
system.cpu0.icache.ReadReq_hits::total        1249888                       # number of ReadReq hits
system.cpu0.icache.ReadReq_misses::.cpu0.inst         8835                       # number of ReadReq misses
system.cpu0.icache.ReadReq_misses::total         8835                       # number of ReadReq misses
system.cpu0.icache.ReadReq_miss_latency::.cpu0.inst    290372000                       # number of ReadReq miss cycles
system.cpu0.icache.ReadReq_miss_latency::total    290372000                       # number of ReadReq miss cycles
system.cpu0.icache.ReadReq_accesses::.cpu0.inst      1258723                       # number of ReadReq accesses(hits+misses)
system.cpu0.icache.ReadReq_accesses::total      1258723                       # number of ReadReq accesses(hits+misses)
system.cpu0.icache.ReadReq_miss_rate::.cpu0.inst     0.007019                       # miss rate for ReadReq accesses
system.cpu0.icache.ReadReq_miss_rate::total     0.007019                       # miss rate for ReadReq accesses
system.cpu0.icache.ReadReq_avg_miss_latency::.cpu0.inst 32866.100736                       # average ReadReq miss latency
system.cpu0.icache.ReadReq_avg_miss_latency::total 32866.100736                       # average ReadReq miss latency
system.cpu0.icache.ReadReq_mshr_misses::.cpu0.inst         8835                       # number of ReadReq MSHR misses
system.cpu0.icache.ReadReq_mshr_misses::total         8835                       # number of ReadReq MSHR misses
system.cpu0.icache.ReadReq_mshr_miss_latency::.cpu0.inst    281537000                       # number of ReadReq MSHR miss cycles
system.cpu0.icache.ReadReq_mshr_miss_latency::total    281537000                       # number of ReadReq MSHR miss cycles
system.cpu0.icache.ReadReq_mshr_miss_rate::.cpu0.inst     0.007019                       # mshr miss rate for ReadReq accesses
system.cpu0.icache.ReadReq_mshr_miss_rate::total     0.007019                       # mshr miss rate for ReadReq accesses
system.cpu0.icache.ReadReq_avg_mshr_miss_latency::.cpu0.inst 31866.100736                       # average ReadReq mshr miss latency
system.cpu0.icache.ReadReq_avg_mshr_miss_latency::total 31866.100736                       # average ReadReq mshr miss latency
system.cpu0.icache.power_state.pwrStateResidencyTicks::UNDEFINED  33396945000                       # Cumulative time (in ticks) in various power states
system.cpu0.icache.tags.tagsinuse           15.999590                       # Cycle average of tags in use
system.cpu0.icache.tags.total_refs            1258723                       # Total number of references to valid blocks.
system.cpu0.icache.tags.sampled_refs             8835                       # Sample count of references to valid blocks.
system.cpu0.icache.tags.avg_refs           142.470062                       # Average number of references to valid blocks.
system.cpu0.icache.tags.warmup_cycle            87500                       # Cycle when the warmup percentage was hit.
system.cpu0.icache.tags.occ_blocks::.cpu0.inst    15.999590                       # Average occupied blocks per requestor
system.cpu0.icache.tags.occ_percent::.cpu0.inst     0.999974                       # Average percentage of cache occupancy
system.cpu0.icache.tags.occ_percent::total     0.999974                       # Average percentage of cache occupancy
system.cpu0.icache.tags.occ_task_id_blocks::1024           16                       # Occupied blocks per task id
system.cpu0.icache.tags.age_task_id_blocks_1024::4           16                       # Occupied blocks per task id
system.cpu0.icache.tags.occ_task_id_percent::1024            1                       # Percentage of cache occupancy per task id
system.cpu0.icache.tags.tag_accesses         10078619                       # Number of tag accesses
system.cpu0.icache.tags.data_accesses        10078619                       # Number of data accesses
system.cpu0.icache.tags.power_state.pwrStateResidencyTicks::UNDEFINED  33396945000                       # Cumulative time (in ticks) in various power states
system.cpu0.dtb.walker.power_state.pwrStateResidencyTicks::UNDEFINED  33396945000                       # Cumulative time (in ticks) in various power states
system.cpu0.interrupts.clk_domain.clock          8000                       # Clock period in ticks
system.cpu0.itb_walker_cache.blocked_cycles::no_mshrs            0                       # number of cycles access was blocked
system.cpu0.itb_walker_cache.blocked_cycles::no_targets            0                       # number of cycles access was blocked
system.cpu0.itb_walker_cache.blocked::no_mshrs            0                       # number of cycles access was blocked
system.cpu0.itb_walker_cache.blocked::no_targets            0                       # number of cycles access was blocked
system.cpu0.itb_walker_cache.avg_blocked_cycles::no_mshrs          nan                       # average number of cycles each access was blocked
system.cpu0.itb_walker_cache.avg_blocked_cycles::no_targets          nan                       # average number of cycles each access was blocked
system.cpu0.itb_walker_cache.replacements            0                       # number of replacements
system.cpu0.itb_walker_cache.power_state.pwrStateResidencyTicks::UNDEFINED  33396945000                       # Cumulative time (in ticks) in various power states
system.cpu0.itb_walker_cache.tags.tagsinuse            0                       # Cycle average of tags in use
system.cpu0.itb_walker_cache.tags.total_refs            0                       # Total number of references to valid blocks.
system.cpu0.itb_walker_cache.tags.sampled_refs            0                       # Sample count of references to valid blocks.
system.cpu0.itb_walker_cache.tags.avg_refs          nan                       # Average number of references to valid blocks.
system.cpu0.itb_walker_cache.tags.warmup_cycle            0                       # Cycle when the warmup percentage was hit.
system.cpu0.itb_walker_cache.tags.tag_accesses            0                       # Number of tag accesses
system.cpu0.itb_walker_cache.tags.data_accesses            0                       # Number of data accesses
system.cpu0.itb_walker_cache.tags.power_state.pwrStateResidencyTicks::UNDEFINED  33396945000                       # Cumulative time (in ticks) in various power states
system.cpu0.dtb_walker_cache.blocked_cycles::no_mshrs            0                       # number of cycles access was blocked
system.cpu0.dtb_walker_cache.blocked_cycles::no_targets            0                       # number of cycles access was blocked
system.cpu0.dtb_walker_cache.blocked::no_mshrs            0                       # number of cycles access was blocked
system.cpu0.dtb_walker_cache.blocked::no_targets            0                       # number of cycles access was blocked
system.cpu0.dtb_walker_cache.avg_blocked_cycles::no_mshrs          nan                       # average number of cycles each access was blocked
system.cpu0.dtb_walker_cache.avg_blocked_cycles::no_targets          nan                       # average number of cycles each access was blocked
system.cpu0.dtb_walker_cache.replacements            0                       # number of replacements
system.cpu0.dtb_walker_cache.power_state.pwrStateResidencyTicks::UNDEFINED  33396945000                       # Cumulative time (in ticks) in various power states
system.cpu0.dtb_walker_cache.tags.tagsinuse            0                       # Cycle average of tags in use
system.cpu0.dtb_walker_cache.tags.total_refs            0                       # Total number of references to valid blocks.
system.cpu0.dtb_walker_cache.tags.sampled_refs            0                       # Sample count of references to valid blocks.
system.cpu0.dtb_walker_cache.tags.avg_refs          nan                       # Average number of references to valid blocks.
system.cpu0.dtb_walker_cache.tags.warmup_cycle            0                       # Cycle when the warmup percentage was hit.
system.cpu0.dtb_walker_cache.tags.tag_accesses            0                       # Number of tag accesses
system.cpu0.dtb_walker_cache.tags.data_accesses            0                       # Number of data accesses
system.cpu0.dtb_walker_cache.tags.power_state.pwrStateResidencyTicks::UNDEFINED  33396945000                       # Cumulative time (in ticks) in various power states
system.cpu0.dcache.demand_hits::.cpu0.data      2723495                       # number of demand (read+write) hits
system.cpu0.dcache.demand_hits::total         2723495                       # number of demand (read+write) hits
system.cpu0.dcache.overall_hits::.cpu0.data      2723495                       # number of overall hits
system.cpu0.dcache.overall_hits::total        2723495                       # number of overall hits
system.cpu0.dcache.demand_misses::.cpu0.data       719738                       # number of demand (read+write) misses
system.cpu0.dcache.demand_misses::total        719738                       # number of demand (read+write) misses
system.cpu0.dcache.overall_misses::.cpu0.data       719738                       # number of overall misses
system.cpu0.dcache.overall_misses::total       719738                       # number of overall misses
system.cpu0.dcache.demand_miss_latency::.cpu0.data  58748431500                       # number of demand (read+write) miss cycles
system.cpu0.dcache.demand_miss_latency::total  58748431500                       # number of demand (read+write) miss cycles
system.cpu0.dcache.overall_miss_latency::.cpu0.data  58748431500                       # number of overall miss cycles
system.cpu0.dcache.overall_miss_latency::total  58748431500                       # number of overall miss cycles
system.cpu0.dcache.demand_accesses::.cpu0.data      3443233                       # number of demand (read+write) accesses
system.cpu0.dcache.demand_accesses::total      3443233                       # number of demand (read+write) accesses
system.cpu0.dcache.overall_accesses::.cpu0.data      3443233                       # number of overall (read+write) accesses
system.cpu0.dcache.overall_accesses::total      3443233                       # number of overall (read+write) accesses
system.cpu0.dcache.demand_miss_rate::.cpu0.data     0.209030                       # miss rate for demand accesses
system.cpu0.dcache.demand_miss_rate::total     0.209030                       # miss rate for demand accesses
system.cpu0.dcache.overall_miss_rate::.cpu0.data     0.209030                       # miss rate for overall accesses
system.cpu0.dcache.overall_miss_rate::total     0.209030                       # miss rate for overall accesses
system.cpu0.dcache.demand_avg_miss_latency::.cpu0.data 81624.746088                       # average overall miss latency
system.cpu0.dcache.demand_avg_miss_latency::total 81624.746088                       # average overall miss latency
system.cpu0.dcache.overall_avg_miss_latency::.cpu0.data 81624.746088                       # average overall miss latency
system.cpu0.dcache.overall_avg_miss_latency::total 81624.746088                       # average overall miss latency
system.cpu0.dcache.blocked_cycles::no_mshrs            0                       # number of cycles access was blocked
system.cpu0.dcache.blocked_cycles::no_targets            0                       # number of cycles access was blocked
system.cpu0.dcache.blocked::no_mshrs                0                       # number of cycles access was blocked
system.cpu0.dcache.blocked::no_targets              0                       # number of cycles access was blocked
system.cpu0.dcache.avg_blocked_cycles::no_mshrs          nan                       # average number of cycles each access was blocked
system.cpu0.dcache.avg_blocked_cycles::no_targets          nan                       # average number of cycles each access was blocked
system.cpu0.dcache.writebacks::.writebacks       354929                       # number of writebacks
system.cpu0.dcache.writebacks::total           354929                       # number of writebacks
system.cpu0.dcache.demand_mshr_hits::.cpu0.data       350651                       # number of demand (read+write) MSHR hits
system.cpu0.dcache.demand_mshr_hits::total       350651                       # number of demand (read+write) MSHR hits
system.cpu0.dcache.overall_mshr_hits::.cpu0.data       350651                       # number of overall MSHR hits
system.cpu0.dcache.overall_mshr_hits::total       350651                       # number of overall MSHR hits
system.cpu0.dcache.demand_mshr_misses::.cpu0.data       369087                       # number of demand (read+write) MSHR misses
system.cpu0.dcache.demand_mshr_misses::total       369087                       # number of demand (read+write) MSHR misses
system.cpu0.dcache.overall_mshr_misses::.cpu0.data       369087                       # number of overall MSHR misses
system.cpu0.dcache.overall_mshr_misses::total       369087                       # number of overall MSHR misses
system.cpu0.dcache.demand_mshr_miss_latency::.cpu0.data  29306095000                       # number of demand (read+write) MSHR miss cycles
system.cpu0.dcache.demand_mshr_miss_latency::total  29306095000                       # number of demand (read+write) MSHR miss cycles
system.cpu0.dcache.overall_mshr_miss_latency::.cpu0.data  29306095000                       # number of overall MSHR miss cycles
system.cpu0.dcache.overall_mshr_miss_latency::total  29306095000                       # number of overall MSHR miss cycles
system.cpu0.dcache.demand_mshr_miss_rate::.cpu0.data     0.107192                       # mshr miss rate for demand accesses
system.cpu0.dcache.demand_mshr_miss_rate::total     0.107192                       # mshr miss rate for demand accesses
system.cpu0.dcache.overall_mshr_miss_rate::.cpu0.data     0.107192                       # mshr miss rate for overall accesses
system.cpu0.dcache.overall_mshr_miss_rate::total     0.107192                       # mshr miss rate for overall accesses
system.cpu0.dcache.demand_avg_mshr_miss_latency::.cpu0.data 79401.590953                       # average overall mshr miss latency
system.cpu0.dcache.demand_avg_mshr_miss_latency::total 79401.590953                       # average overall mshr miss latency
system.cpu0.dcache.overall_avg_mshr_miss_latency::.cpu0.data 79401.590953                       # average overall mshr miss latency
system.cpu0.dcache.overall_avg_mshr_miss_latency::total 79401.590953                       # average overall mshr miss latency
system.cpu0.dcache.replacements                369070                       # number of replacements
system.cpu0.dcache.ReadReq_hits::.cpu0.data       535717                       # number of ReadReq hits
system.cpu0.dcache.ReadReq_hits::total         535717                       # number of ReadReq hits
system.cpu0.dcache.ReadReq_misses::.cpu0.data        16402                       # number of ReadReq misses
system.cpu0.dcache.ReadReq_misses::total        16402                       # number of ReadReq misses
system.cpu0.dcache.ReadReq_miss_latency::.cpu0.data    529076000                       # number of ReadReq miss cycles
system.cpu0.dcache.ReadReq_miss_latency::total    529076000                       # number of ReadReq miss cycles
system.cpu0.dcache.ReadReq_accesses::.cpu0.data       552119                       # number of ReadReq accesses(hits+misses)
system.cpu0.dcache.ReadReq_accesses::total       552119                       # number of ReadReq accesses(hits+misses)
system.cpu0.dcache.ReadReq_miss_rate::.cpu0.data     0.029707                       # miss rate for ReadReq accesses
system.cpu0.dcache.ReadReq_miss_rate::total     0.029707                       # miss rate for ReadReq accesses
system.cpu0.dcache.ReadReq_avg_miss_latency::.cpu0.data 32256.797951                       # average ReadReq miss latency
system.cpu0.dcache.ReadReq_avg_miss_latency::total 32256.797951                       # average ReadReq miss latency
system.cpu0.dcache.ReadReq_mshr_hits::.cpu0.data          311                       # number of ReadReq MSHR hits
system.cpu0.dcache.ReadReq_mshr_hits::total          311                       # number of ReadReq MSHR hits
system.cpu0.dcache.ReadReq_mshr_misses::.cpu0.data        16091                       # number of ReadReq MSHR misses
system.cpu0.dcache.ReadReq_mshr_misses::total        16091                       # number of ReadReq MSHR misses
system.cpu0.dcache.ReadReq_mshr_miss_latency::.cpu0.data    496731500                       # number of ReadReq MSHR miss cycles
system.cpu0.dcache.ReadReq_mshr_miss_latency::total    496731500                       # number of ReadReq MSHR miss cycles
system.cpu0.dcache.ReadReq_mshr_miss_rate::.cpu0.data     0.029144                       # mshr miss rate for ReadReq accesses
system.cpu0.dcache.ReadReq_mshr_miss_rate::total     0.029144                       # mshr miss rate for ReadReq accesses
system.cpu0.dcache.ReadReq_avg_mshr_miss_latency::.cpu0.data 30870.144801                       # average ReadReq mshr miss latency
system.cpu0.dcache.ReadReq_avg_mshr_miss_latency::total 30870.144801                       # average ReadReq mshr miss latency
system.cpu0.dcache.WriteReq_hits::.cpu0.data      2187778                       # number of WriteReq hits
system.cpu0.dcache.WriteReq_hits::total       2187778                       # number of WriteReq hits
system.cpu0.dcache.WriteReq_misses::.cpu0.data       703336                       # number of WriteReq misses
system.cpu0.dcache.WriteReq_misses::total       703336                       # number of WriteReq misses
system.cpu0.dcache.WriteReq_miss_latency::.cpu0.data  58219355500                       # number of WriteReq miss cycles
system.cpu0.dcache.WriteReq_miss_latency::total  58219355500                       # number of WriteReq miss cycles
system.cpu0.dcache.WriteReq_accesses::.cpu0.data      2891114                       # number of WriteReq accesses(hits+misses)
system.cpu0.dcache.WriteReq_accesses::total      2891114                       # number of WriteReq accesses(hits+misses)
system.cpu0.dcache.WriteReq_miss_rate::.cpu0.data     0.243275                       # miss rate for WriteReq accesses
system.cpu0.dcache.WriteReq_miss_rate::total     0.243275                       # miss rate for WriteReq accesses
system.cpu0.dcache.WriteReq_avg_miss_latency::.cpu0.data 82776.020991                       # average WriteReq miss latency
system.cpu0.dcache.WriteReq_avg_miss_latency::total 82776.020991                       # average WriteReq miss latency
system.cpu0.dcache.WriteReq_mshr_hits::.cpu0.data       350340                       # number of WriteReq MSHR hits
system.cpu0.dcache.WriteReq_mshr_hits::total       350340                       # number of WriteReq MSHR hits
system.cpu0.dcache.WriteReq_mshr_misses::.cpu0.data       352996                       # number of WriteReq MSHR misses
system.cpu0.dcache.WriteReq_mshr_misses::total       352996                       # number of WriteReq MSHR misses
system.cpu0.dcache.WriteReq_mshr_miss_latency::.cpu0.data  28809363500                       # number of WriteReq MSHR miss cycles
system.cpu0.dcache.WriteReq_mshr_miss_latency::total  28809363500                       # number of WriteReq MSHR miss cycles
system.cpu0.dcache.WriteReq_mshr_miss_rate::.cpu0.data     0.122097                       # mshr miss rate for WriteReq accesses
system.cpu0.dcache.WriteReq_mshr_miss_rate::total     0.122097                       # mshr miss rate for WriteReq accesses
system.cpu0.dcache.WriteReq_avg_mshr_miss_latency::.cpu0.data 81613.852565                       # average WriteReq mshr miss latency
system.cpu0.dcache.WriteReq_avg_mshr_miss_latency::total 81613.852565                       # average WriteReq mshr miss latency
system.cpu0.dcache.power_state.pwrStateResidencyTicks::UNDEFINED  33396945000                       # Cumulative time (in ticks) in various power states
system.cpu0.dcache.tags.tagsinuse           15.999617                       # Cycle average of tags in use
system.cpu0.dcache.tags.total_refs            3092581                       # Total number of references to valid blocks.
system.cpu0.dcache.tags.sampled_refs           369086                       # Sample count of references to valid blocks.
system.cpu0.dcache.tags.avg_refs             8.379025                       # Average number of references to valid blocks.
system.cpu0.dcache.tags.warmup_cycle           178500                       # Cycle when the warmup percentage was hit.
system.cpu0.dcache.tags.occ_blocks::.cpu0.data    15.999617                       # Average occupied blocks per requestor
system.cpu0.dcache.tags.occ_percent::.cpu0.data     0.999976                       # Average percentage of cache occupancy
system.cpu0.dcache.tags.occ_percent::total     0.999976                       # Average percentage of cache occupancy
system.cpu0.dcache.tags.occ_task_id_blocks::1024           16                       # Occupied blocks per task id
system.cpu0.dcache.tags.age_task_id_blocks_1024::0           15                       # Occupied blocks per task id
system.cpu0.dcache.tags.age_task_id_blocks_1024::4            1                       # Occupied blocks per task id
system.cpu0.dcache.tags.occ_task_id_percent::1024            1                       # Percentage of cache occupancy per task id
system.cpu0.dcache.tags.tag_accesses         27914950                       # Number of tag accesses
system.cpu0.dcache.tags.data_accesses        27914950                       # Number of data accesses
system.cpu0.dcache.tags.power_state.pwrStateResidencyTicks::UNDEFINED  33396945000                       # Cumulative time (in ticks) in various power states
system.cpu0.power_state.pwrStateResidencyTicks::ON  33396945000                       # Cumulative time (in ticks) in various power states
system.cpu0.itb.walker.power_state.pwrStateResidencyTicks::UNDEFINED  33396945000                       # Cumulative time (in ticks) in various power states
system.cpu1.icache.demand_hits::.cpu1.inst      1730754                       # number of demand (read+write) hits
system.cpu1.icache.demand_hits::total         1730754                       # number of demand (read+write) hits
system.cpu1.icache.overall_hits::.cpu1.inst      1730754                       # number of overall hits
system.cpu1.icache.overall_hits::total        1730754                       # number of overall hits
system.cpu1.icache.demand_misses::.cpu1.inst      1635902                       # number of demand (read+write) misses
system.cpu1.icache.demand_misses::total       1635902                       # number of demand (read+write) misses
system.cpu1.icache.overall_misses::.cpu1.inst      1635902                       # number of overall misses
system.cpu1.icache.overall_misses::total      1635902                       # number of overall misses
system.cpu1.icache.demand_miss_latency::.cpu1.inst  21457037000                       # number of demand (read+write) miss cycles
system.cpu1.icache.demand_miss_latency::total  21457037000                       # number of demand (read+write) miss cycles
system.cpu1.icache.overall_miss_latency::.cpu1.inst  21457037000                       # number of overall miss cycles
system.cpu1.icache.overall_miss_latency::total  21457037000                       # number of overall miss cycles
system.cpu1.icache.demand_accesses::.cpu1.inst      3366656                       # number of demand (read+write) accesses
system.cpu1.icache.demand_accesses::total      3366656                       # number of demand (read+write) accesses
system.cpu1.icache.overall_accesses::.cpu1.inst      3366656                       # number of overall (read+write) accesses
system.cpu1.icache.overall_accesses::total      3366656                       # number of overall (read+write) accesses
system.cpu1.icache.demand_miss_rate::.cpu1.inst     0.485913                       # miss rate for demand accesses
system.cpu1.icache.demand_miss_rate::total     0.485913                       # miss rate for demand accesses
system.cpu1.icache.overall_miss_rate::.cpu1.inst     0.485913                       # miss rate for overall accesses
system.cpu1.icache.overall_miss_rate::total     0.485913                       # miss rate for overall accesses
system.cpu1.icache.demand_avg_miss_latency::.cpu1.inst 13116.333986                       # average overall miss latency
system.cpu1.icache.demand_avg_miss_latency::total 13116.333986                       # average overall miss latency
system.cpu1.icache.overall_avg_miss_latency::.cpu1.inst 13116.333986                       # average overall miss latency
system.cpu1.icache.overall_avg_miss_latency::total 13116.333986                       # average overall miss latency
system.cpu1.icache.blocked_cycles::no_mshrs            0                       # number of cycles access was blocked
system.cpu1.icache.blocked_cycles::no_targets            0                       # number of cycles access was blocked
system.cpu1.icache.blocked::no_mshrs                0                       # number of cycles access was blocked
system.cpu1.icache.blocked::no_targets              0                       # number of cycles access was blocked
system.cpu1.icache.avg_blocked_cycles::no_mshrs          nan                       # average number of cycles each access was blocked
system.cpu1.icache.avg_blocked_cycles::no_targets          nan                       # average number of cycles each access was blocked
system.cpu1.icache.writebacks::.writebacks      1635886                       # number of writebacks
system.cpu1.icache.writebacks::total          1635886                       # number of writebacks
system.cpu1.icache.demand_mshr_misses::.cpu1.inst      1635902                       # number of demand (read+write) MSHR misses
system.cpu1.icache.demand_mshr_misses::total      1635902                       # number of demand (read+write) MSHR misses
system.cpu1.icache.overall_mshr_misses::.cpu1.inst      1635902                       # number of overall MSHR misses
system.cpu1.icache.overall_mshr_misses::total      1635902                       # number of overall MSHR misses
system.cpu1.icache.demand_mshr_miss_latency::.cpu1.inst  19821135000                       # number of demand (read+write) MSHR miss cycles
system.cpu1.icache.demand_mshr_miss_latency::total  19821135000                       # number of demand (read+write) MSHR miss cycles
system.cpu1.icache.overall_mshr_miss_latency::.cpu1.inst  19821135000                       # number of overall MSHR miss cycles
system.cpu1.icache.overall_mshr_miss_latency::total  19821135000                       # number of overall MSHR miss cycles
system.cpu1.icache.demand_mshr_miss_rate::.cpu1.inst     0.485913                       # mshr miss rate for demand accesses
system.cpu1.icache.demand_mshr_miss_rate::total     0.485913                       # mshr miss rate for demand accesses
system.cpu1.icache.overall_mshr_miss_rate::.cpu1.inst     0.485913                       # mshr miss rate for overall accesses
system.cpu1.icache.overall_mshr_miss_rate::total     0.485913                       # mshr miss rate for overall accesses
system.cpu1.icache.demand_avg_mshr_miss_latency::.cpu1.inst 12116.333986                       # average overall mshr miss latency
system.cpu1.icache.demand_avg_mshr_miss_latency::total 12116.333986                       # average overall mshr miss latency
system.cpu1.icache.overall_avg_mshr_miss_latency::.cpu1.inst 12116.333986                       # average overall mshr miss latency
system.cpu1.icache.overall_avg_mshr_miss_latency::total 12116.333986                       # average overall mshr miss latency
system.cpu1.icache.replacements               1635886                       # number of replacements
system.cpu1.icache.ReadReq_hits::.cpu1.inst      1730754                       # number of ReadReq hits
system.cpu1.icache.ReadReq_hits::total        1730754                       # number of ReadReq hits
system.cpu1.icache.ReadReq_misses::.cpu1.inst      1635902                       # number of ReadReq misses
system.cpu1.icache.ReadReq_misses::total      1635902                       # number of ReadReq misses
system.cpu1.icache.ReadReq_miss_latency::.cpu1.inst  21457037000                       # number of ReadReq miss cycles
system.cpu1.icache.ReadReq_miss_latency::total  21457037000                       # number of ReadReq miss cycles
system.cpu1.icache.ReadReq_accesses::.cpu1.inst      3366656                       # number of ReadReq accesses(hits+misses)
system.cpu1.icache.ReadReq_accesses::total      3366656                       # number of ReadReq accesses(hits+misses)
system.cpu1.icache.ReadReq_miss_rate::.cpu1.inst     0.485913                       # miss rate for ReadReq accesses
system.cpu1.icache.ReadReq_miss_rate::total     0.485913                       # miss rate for ReadReq accesses
system.cpu1.icache.ReadReq_avg_miss_latency::.cpu1.inst 13116.333986                       # average ReadReq miss latency
system.cpu1.icache.ReadReq_avg_miss_latency::total 13116.333986                       # average ReadReq miss latency
system.cpu1.icache.ReadReq_mshr_misses::.cpu1.inst      1635902                       # number of ReadReq MSHR misses
system.cpu1.icache.ReadReq_mshr_misses::total      1635902                       # number of ReadReq MSHR misses
system.cpu1.icache.ReadReq_mshr_miss_latency::.cpu1.inst  19821135000                       # number of ReadReq MSHR miss cycles
system.cpu1.icache.ReadReq_mshr_miss_latency::total  19821135000                       # number of ReadReq MSHR miss cycles
system.cpu1.icache.ReadReq_mshr_miss_rate::.cpu1.inst     0.485913                       # mshr miss rate for ReadReq accesses
system.cpu1.icache.ReadReq_mshr_miss_rate::total     0.485913                       # mshr miss rate for ReadReq accesses
system.cpu1.icache.ReadReq_avg_mshr_miss_latency::.cpu1.inst 12116.333986                       # average ReadReq mshr miss latency
system.cpu1.icache.ReadReq_avg_mshr_miss_latency::total 12116.333986                       # average ReadReq mshr miss latency
system.cpu1.icache.power_state.pwrStateResidencyTicks::UNDEFINED  33396945000                       # Cumulative time (in ticks) in various power states
system.cpu1.icache.tags.tagsinuse           15.999573                       # Cycle average of tags in use
system.cpu1.icache.tags.total_refs            3366656                       # Total number of references to valid blocks.
system.cpu1.icache.tags.sampled_refs          1635902                       # Sample count of references to valid blocks.
system.cpu1.icache.tags.avg_refs             2.057981                       # Average number of references to valid blocks.
system.cpu1.icache.tags.warmup_cycle            94500                       # Cycle when the warmup percentage was hit.
system.cpu1.icache.tags.occ_blocks::.cpu1.inst    15.999573                       # Average occupied blocks per requestor
system.cpu1.icache.tags.occ_percent::.cpu1.inst     0.999973                       # Average percentage of cache occupancy
system.cpu1.icache.tags.occ_percent::total     0.999973                       # Average percentage of cache occupancy
system.cpu1.icache.tags.occ_task_id_blocks::1024           16                       # Occupied blocks per task id
system.cpu1.icache.tags.age_task_id_blocks_1024::0           16                       # Occupied blocks per task id
system.cpu1.icache.tags.occ_task_id_percent::1024            1                       # Percentage of cache occupancy per task id
system.cpu1.icache.tags.tag_accesses         28569150                       # Number of tag accesses
system.cpu1.icache.tags.data_accesses        28569150                       # Number of data accesses
system.cpu1.icache.tags.power_state.pwrStateResidencyTicks::UNDEFINED  33396945000                       # Cumulative time (in ticks) in various power states
system.cpu1.dtb.walker.power_state.pwrStateResidencyTicks::UNDEFINED  33396945000                       # Cumulative time (in ticks) in various power states
system.cpu1.interrupts.clk_domain.clock          8000                       # Clock period in ticks
system.cpu1.itb_walker_cache.blocked_cycles::no_mshrs            0                       # number of cycles access was blocked
system.cpu1.itb_walker_cache.blocked_cycles::no_targets            0                       # number of cycles access was blocked
system.cpu1.itb_walker_cache.blocked::no_mshrs            0                       # number of cycles access was blocked
system.cpu1.itb_walker_cache.blocked::no_targets            0                       # number of cycles access was blocked
system.cpu1.itb_walker_cache.avg_blocked_cycles::no_mshrs          nan                       # average number of cycles each access was blocked
system.cpu1.itb_walker_cache.avg_blocked_cycles::no_targets          nan                       # average number of cycles each access was blocked
system.cpu1.itb_walker_cache.replacements            0                       # number of replacements
system.cpu1.itb_walker_cache.power_state.pwrStateResidencyTicks::UNDEFINED  33396945000                       # Cumulative time (in ticks) in various power states
system.cpu1.itb_walker_cache.tags.tagsinuse            0                       # Cycle average of tags in use
system.cpu1.itb_walker_cache.tags.total_refs            0                       # Total number of references to valid blocks.
system.cpu1.itb_walker_cache.tags.sampled_refs            0                       # Sample count of references to valid blocks.
system.cpu1.itb_walker_cache.tags.avg_refs          nan                       # Average number of references to valid blocks.
system.cpu1.itb_walker_cache.tags.warmup_cycle            0                       # Cycle when the warmup percentage was hit.
system.cpu1.itb_walker_cache.tags.tag_accesses            0                       # Number of tag accesses
system.cpu1.itb_walker_cache.tags.data_accesses            0                       # Number of data accesses
system.cpu1.itb_walker_cache.tags.power_state.pwrStateResidencyTicks::UNDEFINED  33396945000                       # Cumulative time (in ticks) in various power states
system.cpu1.dtb_walker_cache.blocked_cycles::no_mshrs            0                       # number of cycles access was blocked
system.cpu1.dtb_walker_cache.blocked_cycles::no_targets            0                       # number of cycles access was blocked
system.cpu1.dtb_walker_cache.blocked::no_mshrs            0                       # number of cycles access was blocked
system.cpu1.dtb_walker_cache.blocked::no_targets            0                       # number of cycles access was blocked
system.cpu1.dtb_walker_cache.avg_blocked_cycles::no_mshrs          nan                       # average number of cycles each access was blocked
system.cpu1.dtb_walker_cache.avg_blocked_cycles::no_targets          nan                       # average number of cycles each access was blocked
system.cpu1.dtb_walker_cache.replacements            0                       # number of replacements
system.cpu1.dtb_walker_cache.power_state.pwrStateResidencyTicks::UNDEFINED  33396945000                       # Cumulative time (in ticks) in various power states
system.cpu1.dtb_walker_cache.tags.tagsinuse            0                       # Cycle average of tags in use
system.cpu1.dtb_walker_cache.tags.total_refs            0                       # Total number of references to valid blocks.
system.cpu1.dtb_walker_cache.tags.sampled_refs            0                       # Sample count of references to valid blocks.
system.cpu1.dtb_walker_cache.tags.avg_refs          nan                       # Average number of references to valid blocks.
system.cpu1.dtb_walker_cache.tags.warmup_cycle            0                       # Cycle when the warmup percentage was hit.
system.cpu1.dtb_walker_cache.tags.tag_accesses            0                       # Number of tag accesses
system.cpu1.dtb_walker_cache.tags.data_accesses            0                       # Number of data accesses
system.cpu1.dtb_walker_cache.tags.power_state.pwrStateResidencyTicks::UNDEFINED  33396945000                       # Cumulative time (in ticks) in various power states
system.cpu1.dcache.demand_hits::.cpu1.data      3401944                       # number of demand (read+write) hits
system.cpu1.dcache.demand_hits::total         3401944                       # number of demand (read+write) hits
system.cpu1.dcache.overall_hits::.cpu1.data      3401944                       # number of overall hits
system.cpu1.dcache.overall_hits::total        3401944                       # number of overall hits
system.cpu1.dcache.demand_misses::.cpu1.data       722744                       # number of demand (read+write) misses
system.cpu1.dcache.demand_misses::total        722744                       # number of demand (read+write) misses
system.cpu1.dcache.overall_misses::.cpu1.data       722744                       # number of overall misses
system.cpu1.dcache.overall_misses::total       722744                       # number of overall misses
system.cpu1.dcache.demand_miss_latency::.cpu1.data  14404249500                       # number of demand (read+write) miss cycles
system.cpu1.dcache.demand_miss_latency::total  14404249500                       # number of demand (read+write) miss cycles
system.cpu1.dcache.overall_miss_latency::.cpu1.data  14404249500                       # number of overall miss cycles
system.cpu1.dcache.overall_miss_latency::total  14404249500                       # number of overall miss cycles
system.cpu1.dcache.demand_accesses::.cpu1.data      4124688                       # number of demand (read+write) accesses
system.cpu1.dcache.demand_accesses::total      4124688                       # number of demand (read+write) accesses
system.cpu1.dcache.overall_accesses::.cpu1.data      4124688                       # number of overall (read+write) accesses
system.cpu1.dcache.overall_accesses::total      4124688                       # number of overall (read+write) accesses
system.cpu1.dcache.demand_miss_rate::.cpu1.data     0.175224                       # miss rate for demand accesses
system.cpu1.dcache.demand_miss_rate::total     0.175224                       # miss rate for demand accesses
system.cpu1.dcache.overall_miss_rate::.cpu1.data     0.175224                       # miss rate for overall accesses
system.cpu1.dcache.overall_miss_rate::total     0.175224                       # miss rate for overall accesses
system.cpu1.dcache.demand_avg_miss_latency::.cpu1.data 19929.946841                       # average overall miss latency
system.cpu1.dcache.demand_avg_miss_latency::total 19929.946841                       # average overall miss latency
system.cpu1.dcache.overall_avg_miss_latency::.cpu1.data 19929.946841                       # average overall miss latency
system.cpu1.dcache.overall_avg_miss_latency::total 19929.946841                       # average overall miss latency
system.cpu1.dcache.blocked_cycles::no_mshrs            0                       # number of cycles access was blocked
system.cpu1.dcache.blocked_cycles::no_targets            0                       # number of cycles access was blocked
system.cpu1.dcache.blocked::no_mshrs                0                       # number of cycles access was blocked
system.cpu1.dcache.blocked::no_targets              0                       # number of cycles access was blocked
system.cpu1.dcache.avg_blocked_cycles::no_mshrs          nan                       # average number of cycles each access was blocked
system.cpu1.dcache.avg_blocked_cycles::no_targets          nan                       # average number of cycles each access was blocked
system.cpu1.dcache.writebacks::.writebacks       433920                       # number of writebacks
system.cpu1.dcache.writebacks::total           433920                       # number of writebacks
system.cpu1.dcache.demand_mshr_hits::.cpu1.data        85468                       # number of demand (read+write) MSHR hits
system.cpu1.dcache.demand_mshr_hits::total        85468                       # number of demand (read+write) MSHR hits
system.cpu1.dcache.overall_mshr_hits::.cpu1.data        85468                       # number of overall MSHR hits
system.cpu1.dcache.overall_mshr_hits::total        85468                       # number of overall MSHR hits
system.cpu1.dcache.demand_mshr_misses::.cpu1.data       637276                       # number of demand (read+write) MSHR misses
system.cpu1.dcache.demand_mshr_misses::total       637276                       # number of demand (read+write) MSHR misses
system.cpu1.dcache.overall_mshr_misses::.cpu1.data       637276                       # number of overall MSHR misses
system.cpu1.dcache.overall_mshr_misses::total       637276                       # number of overall MSHR misses
system.cpu1.dcache.demand_mshr_miss_latency::.cpu1.data  11288660500                       # number of demand (read+write) MSHR miss cycles
system.cpu1.dcache.demand_mshr_miss_latency::total  11288660500                       # number of demand (read+write) MSHR miss cycles
system.cpu1.dcache.overall_mshr_miss_latency::.cpu1.data  11288660500                       # number of overall MSHR miss cycles
system.cpu1.dcache.overall_mshr_miss_latency::total  11288660500                       # number of overall MSHR miss cycles
system.cpu1.dcache.demand_mshr_miss_rate::.cpu1.data     0.154503                       # mshr miss rate for demand accesses
system.cpu1.dcache.demand_mshr_miss_rate::total     0.154503                       # mshr miss rate for demand accesses
system.cpu1.dcache.overall_mshr_miss_rate::.cpu1.data     0.154503                       # mshr miss rate for overall accesses
system.cpu1.dcache.overall_mshr_miss_rate::total     0.154503                       # mshr miss rate for overall accesses
system.cpu1.dcache.demand_avg_mshr_miss_latency::.cpu1.data 17713.926933                       # average overall mshr miss latency
system.cpu1.dcache.demand_avg_mshr_miss_latency::total 17713.926933                       # average overall mshr miss latency
system.cpu1.dcache.overall_avg_mshr_miss_latency::.cpu1.data 17713.926933                       # average overall mshr miss latency
system.cpu1.dcache.overall_avg_mshr_miss_latency::total 17713.926933                       # average overall mshr miss latency
system.cpu1.dcache.replacements                637260                       # number of replacements
system.cpu1.dcache.ReadReq_hits::.cpu1.data      1963586                       # number of ReadReq hits
system.cpu1.dcache.ReadReq_hits::total        1963586                       # number of ReadReq hits
system.cpu1.dcache.ReadReq_misses::.cpu1.data       466717                       # number of ReadReq misses
system.cpu1.dcache.ReadReq_misses::total       466717                       # number of ReadReq misses
system.cpu1.dcache.ReadReq_miss_latency::.cpu1.data   7005543500                       # number of ReadReq miss cycles
system.cpu1.dcache.ReadReq_miss_latency::total   7005543500                       # number of ReadReq miss cycles
system.cpu1.dcache.ReadReq_accesses::.cpu1.data      2430303                       # number of ReadReq accesses(hits+misses)
system.cpu1.dcache.ReadReq_accesses::total      2430303                       # number of ReadReq accesses(hits+misses)
system.cpu1.dcache.ReadReq_miss_rate::.cpu1.data     0.192041                       # miss rate for ReadReq accesses
system.cpu1.dcache.ReadReq_miss_rate::total     0.192041                       # miss rate for ReadReq accesses
system.cpu1.dcache.ReadReq_avg_miss_latency::.cpu1.data 15010.259965                       # average ReadReq miss latency
system.cpu1.dcache.ReadReq_avg_miss_latency::total 15010.259965                       # average ReadReq miss latency
system.cpu1.dcache.ReadReq_mshr_hits::.cpu1.data        18095                       # number of ReadReq MSHR hits
system.cpu1.dcache.ReadReq_mshr_hits::total        18095                       # number of ReadReq MSHR hits
system.cpu1.dcache.ReadReq_mshr_misses::.cpu1.data       448622                       # number of ReadReq MSHR misses
system.cpu1.dcache.ReadReq_mshr_misses::total       448622                       # number of ReadReq MSHR misses
system.cpu1.dcache.ReadReq_mshr_miss_latency::.cpu1.data   6295954000                       # number of ReadReq MSHR miss cycles
system.cpu1.dcache.ReadReq_mshr_miss_latency::total   6295954000                       # number of ReadReq MSHR miss cycles
system.cpu1.dcache.ReadReq_mshr_miss_rate::.cpu1.data     0.184595                       # mshr miss rate for ReadReq accesses
system.cpu1.dcache.ReadReq_mshr_miss_rate::total     0.184595                       # mshr miss rate for ReadReq accesses
system.cpu1.dcache.ReadReq_avg_mshr_miss_latency::.cpu1.data 14033.984067                       # average ReadReq mshr miss latency
system.cpu1.dcache.ReadReq_avg_mshr_miss_latency::total 14033.984067                       # average ReadReq mshr miss latency
system.cpu1.dcache.WriteReq_hits::.cpu1.data      1438358                       # number of WriteReq hits
system.cpu1.dcache.WriteReq_hits::total       1438358                       # number of WriteReq hits
system.cpu1.dcache.WriteReq_misses::.cpu1.data       256027                       # number of WriteReq misses
system.cpu1.dcache.WriteReq_misses::total       256027                       # number of WriteReq misses
system.cpu1.dcache.WriteReq_miss_latency::.cpu1.data   7398706000                       # number of WriteReq miss cycles
system.cpu1.dcache.WriteReq_miss_latency::total   7398706000                       # number of WriteReq miss cycles
system.cpu1.dcache.WriteReq_accesses::.cpu1.data      1694385                       # number of WriteReq accesses(hits+misses)
system.cpu1.dcache.WriteReq_accesses::total      1694385                       # number of WriteReq accesses(hits+misses)
[...]
system.mem_ctrls.bytesPerActivate::256-383         4907      5.45%     47.44% # Bytes accessed per row activation
system.mem_ctrls.bytesPerActivate::384-511         3011      3.34%     50.78% # Bytes accessed per row activation
system.mem_ctrls.bytesPerActivate::512-639         1877      2.08%     52.87% # Bytes accessed per row activation
system.mem_ctrls.bytesPerActivate::640-767         1846      2.05%     54.92% # Bytes accessed per row activation
system.mem_ctrls.bytesPerActivate::768-895         1638      1.82%     56.73% # Bytes accessed per row activation
system.mem_ctrls.bytesPerActivate::896-1023         1621      1.80%     58.53% # Bytes accessed per row activation
system.mem_ctrls.bytesPerActivate::1024-1151        37355     41.47%    100.00% # Bytes accessed per row activation
system.mem_ctrls.bytesPerActivate::total        90086                       # Bytes accessed per row activation
system.mem_ctrls.rdPerTurnAround::samples        24041                       # Reads before turning the bus around for writes
system.mem_ctrls.rdPerTurnAround::mean      16.546649                       # Reads before turning the bus around for writes
system.mem_ctrls.rdPerTurnAround::gmean     16.233272                       # Reads before turning the bus around for writes
system.mem_ctrls.rdPerTurnAround::stdev      8.479205                       # Reads before turning the bus around for writes
system.mem_ctrls.rdPerTurnAround::0-31          23896     99.40%     99.40% # Reads before turning the bus around for writes
system.mem_ctrls.rdPerTurnAround::32-63            85      0.35%     99.75% # Reads before turning the bus around for writes
system.mem_ctrls.rdPerTurnAround::64-95            20      0.08%     99.83% # Reads before turning the bus around for writes
system.mem_ctrls.rdPerTurnAround::96-127           14      0.06%     99.89% # Reads before turning the bus around for writes
system.mem_ctrls.rdPerTurnAround::128-159            6      0.02%     99.92% # Reads before turning the bus around for writes
system.mem_ctrls.rdPerTurnAround::160-191            6      0.02%     99.94% # Reads before turning the bus around for writes
system.mem_ctrls.rdPerTurnAround::192-223            4      0.02%     99.96% # Reads before turning the bus around for writes
system.mem_ctrls.rdPerTurnAround::224-255            4      0.02%     99.98% # Reads before turning the bus around for writes
system.mem_ctrls.rdPerTurnAround::256-287            2      0.01%     99.98% # Reads before turning the bus around for writes
system.mem_ctrls.rdPerTurnAround::288-319            1      0.00%     99.99% # Reads before turning the bus around for writes
system.mem_ctrls.rdPerTurnAround::320-351            1      0.00%     99.99% # Reads before turning the bus around for writes
system.mem_ctrls.rdPerTurnAround::384-415            1      0.00%    100.00% # Reads before turning the bus around for writes
system.mem_ctrls.rdPerTurnAround::640-671            1      0.00%    100.00% # Reads before turning the bus around for writes
system.mem_ctrls.rdPerTurnAround::total         24041                       # Reads before turning the bus around for writes
system.mem_ctrls.wrPerTurnAround::samples        24041                       # Writes before turning the bus around for reads
system.mem_ctrls.wrPerTurnAround::mean      16.040473                       # Writes before turning the bus around for reads
system.mem_ctrls.wrPerTurnAround::gmean     16.037344                       # Writes before turning the bus around for reads
system.mem_ctrls.wrPerTurnAround::stdev      0.334983                       # Writes before turning the bus around for reads
system.mem_ctrls.wrPerTurnAround::16            23666     98.44%     98.44% # Writes before turning the bus around for reads
system.mem_ctrls.wrPerTurnAround::17               33      0.14%     98.58% # Writes before turning the bus around for reads
system.mem_ctrls.wrPerTurnAround::18              113      0.47%     99.05% # Writes before turning the bus around for reads
system.mem_ctrls.wrPerTurnAround::19              203      0.84%     99.89% # Writes before turning the bus around for reads
system.mem_ctrls.wrPerTurnAround::20               25      0.10%    100.00% # Writes before turning the bus around for reads
system.mem_ctrls.wrPerTurnAround::21                1      0.00%    100.00% # Writes before turning the bus around for reads
system.mem_ctrls.wrPerTurnAround::total         24041                       # Writes before turning the bus around for reads
system.mem_ctrls.bytesReadDRAM               25459520                       # Total number of bytes read from DRAM
system.mem_ctrls.bytesReadWrQ                   13248                       # Total number of bytes read from write queue
system.mem_ctrls.bytesWritten                24680256                       # Total number of bytes written to DRAM
system.mem_ctrls.bytesReadSys                25472768                       # Total read bytes from the system interface side
system.mem_ctrls.bytesWrittenSys             24686976                       # Total written bytes from the system interface side
system.mem_ctrls.avgRdBW                       762.33                       # Average DRAM read bandwidth in MiByte/s
system.mem_ctrls.avgWrBW                       739.00                       # Average achieved write bandwidth in MiByte/s
system.mem_ctrls.avgRdBWSys                    762.73                       # Average system read bandwidth in MiByte/s
system.mem_ctrls.avgWrBWSys                    739.20                       # Average system write bandwidth in MiByte/s
system.mem_ctrls.peakBW                      12800.00                       # Theoretical peak bandwidth in MiByte/s
system.mem_ctrls.busUtil                        11.73                       # Data bus utilization in percentage
system.mem_ctrls.busUtilRead                     5.96                       # Data bus utilization in percentage for reads
system.mem_ctrls.busUtilWrite                    5.77                       # Data bus utilization in percentage for writes
system.mem_ctrls.totGap                   33396898500                       # Total gap between requests
system.mem_ctrls.avgGap                      42611.89                       # Average gap between requests
system.mem_ctrls.masterReadBytes::.cpu0.inst       154048                       # Per-master bytes read from memory
system.mem_ctrls.masterReadBytes::.cpu0.data     22530048                       # Per-master bytes read from memory
system.mem_ctrls.masterReadBytes::.cpu1.inst       113152                       # Per-master bytes read from memory
system.mem_ctrls.masterReadBytes::.cpu1.data      2662272                       # Per-master bytes read from memory
system.mem_ctrls.masterWriteBytes::.writebacks     24680256                       # Per-master bytes write to memory
system.mem_ctrls.masterReadRate::.cpu0.inst 4612637.473277870566                       # Per-master bytes read from memory rate (Bytes/sec)
system.mem_ctrls.masterReadRate::.cpu0.data 674614040.296200752258                       # Per-master bytes read from memory rate (Bytes/sec)
system.mem_ctrls.masterReadRate::.cpu1.inst 3388094.330184991937                       # Per-master bytes read from memory rate (Bytes/sec)
system.mem_ctrls.masterReadRate::.cpu1.data 79716033.906694173813                       # Per-master bytes read from memory rate (Bytes/sec)
system.mem_ctrls.masterWriteRate::.writebacks 738997414.284450292587                       # Per-master bytes write to memory rate (Bytes/sec)
system.mem_ctrls.masterReadAccesses::.cpu0.inst         2407                       # Per-master read serviced memory accesses
system.mem_ctrls.masterReadAccesses::.cpu0.data       352232                       # Per-master read serviced memory accesses
system.mem_ctrls.masterReadAccesses::.cpu1.inst         1768                       # Per-master read serviced memory accesses
system.mem_ctrls.masterReadAccesses::.cpu1.data        41605                       # Per-master read serviced memory accesses
system.mem_ctrls.masterWriteAccesses::.writebacks       385734                       # Per-master write serviced memory accesses
system.mem_ctrls.masterReadTotalLat::.cpu0.inst     72099500                       # Per-master read total memory access latency
system.mem_ctrls.masterReadTotalLat::.cpu0.data  10432034000                       # Per-master read total memory access latency
system.mem_ctrls.masterReadTotalLat::.cpu1.inst     53579750                       # Per-master read total memory access latency
system.mem_ctrls.masterReadTotalLat::.cpu1.data   1641852000                       # Per-master read total memory access latency
system.mem_ctrls.masterWriteTotalLat::.writebacks 828769083250                       # Per-master write total memory access latency
system.mem_ctrls.masterReadAvgLat::.cpu0.inst     29954.09                       # Per-master read average memory access latency
system.mem_ctrls.masterReadAvgLat::.cpu0.data     29616.94                       # Per-master read average memory access latency
system.mem_ctrls.masterReadAvgLat::.cpu1.inst     30305.29                       # Per-master read average memory access latency
system.mem_ctrls.masterReadAvgLat::.cpu1.data     39462.85                       # Per-master read average memory access latency
system.mem_ctrls.masterWriteAvgLat::.writebacks   2148550.77                       # Per-master write average memory access latency
system.mem_ctrls.pageHitRate                    88.50                       # Row buffer hit rate, read and write combined
system.mem_ctrls.rank1.actEnergy            319550700                       # Energy for activate commands per rank (pJ)
system.mem_ctrls.rank1.preEnergy            169845225                       # Energy for precharge commands per rank (pJ)
system.mem_ctrls.rank1.readEnergy          1418718000                       # Energy for read commands per rank (pJ)
system.mem_ctrls.rank1.writeEnergy         1006677000                       # Energy for write commands per rank (pJ)
system.mem_ctrls.rank1.refreshEnergy     2636190960.000000                       # Energy for refresh commands per rank (pJ)
system.mem_ctrls.rank1.actBackEnergy      13394532600                       # Energy for active background per rank (pJ)
system.mem_ctrls.rank1.preBackEnergy       1544820480                       # Energy for precharge background per rank (pJ)
system.mem_ctrls.rank1.actPowerDownEnergy            0                       # Energy for active power-down per rank (pJ)
system.mem_ctrls.rank1.prePowerDownEnergy            0                       # Energy for precharge power-down per rank (pJ)
system.mem_ctrls.rank1.selfRefreshEnergy            0                       # Energy for self refresh per rank (pJ)
system.mem_ctrls.rank1.totalEnergy        20490334965                       # Total energy per rank (pJ)
system.mem_ctrls.rank1.averagePower        613.539201                       # Core power per rank (mW)
system.mem_ctrls.rank1.totalIdleTime                0                       # Total Idle time Per DRAM Rank
system.mem_ctrls.rank1.memoryStateTime::IDLE   3877307000                       # Time in different power states
system.mem_ctrls.rank1.memoryStateTime::REF   1115140000                       # Time in different power states
system.mem_ctrls.rank1.memoryStateTime::SREF            0                       # Time in different power states
system.mem_ctrls.rank1.memoryStateTime::PRE_PDN            0                       # Time in different power states
system.mem_ctrls.rank1.memoryStateTime::ACT  28404498000                       # Time in different power states
system.mem_ctrls.rank1.memoryStateTime::ACT_PDN            0                       # Time in different power states
system.mem_ctrls.rank0.actEnergy            323670480                       # Energy for activate commands per rank (pJ)
system.mem_ctrls.rank0.preEnergy            172031145                       # Energy for precharge commands per rank (pJ)
system.mem_ctrls.rank0.readEnergy          1421609700                       # Energy for read commands per rank (pJ)
system.mem_ctrls.rank0.writeEnergy         1006306380                       # Energy for write commands per rank (pJ)
system.mem_ctrls.rank0.refreshEnergy     2636190960.000000                       # Energy for refresh commands per rank (pJ)
system.mem_ctrls.rank0.actBackEnergy      13411916460                       # Energy for active background per rank (pJ)
system.mem_ctrls.rank0.preBackEnergy       1530181440                       # Energy for precharge background per rank (pJ)
system.mem_ctrls.rank0.actPowerDownEnergy            0                       # Energy for active power-down per rank (pJ)
system.mem_ctrls.rank0.prePowerDownEnergy            0                       # Energy for precharge power-down per rank (pJ)
system.mem_ctrls.rank0.selfRefreshEnergy            0                       # Energy for self refresh per rank (pJ)
system.mem_ctrls.rank0.totalEnergy        20501906565                       # Total energy per rank (pJ)
system.mem_ctrls.rank0.averagePower        613.885688                       # Core power per rank (mW)
system.mem_ctrls.rank0.totalIdleTime                0                       # Total Idle time Per DRAM Rank
system.mem_ctrls.rank0.memoryStateTime::IDLE   3838828000                       # Time in different power states
system.mem_ctrls.rank0.memoryStateTime::REF   1115140000                       # Time in different power states
system.mem_ctrls.rank0.memoryStateTime::SREF            0                       # Time in different power states
system.mem_ctrls.rank0.memoryStateTime::PRE_PDN            0                       # Time in different power states
system.mem_ctrls.rank0.memoryStateTime::ACT  28442977000                       # Time in different power states
system.mem_ctrls.rank0.memoryStateTime::ACT_PDN            0                       # Time in different power states
system.mem_ctrls.power_state.pwrStateResidencyTicks::UNDEFINED  33396945000                       # Cumulative time (in ticks) in various power states
system.cpu_clk_domain.clock                       500                       # Clock period in ticks
system.tol2bus.trans_dist::ReadResp           2109450                       # Transaction distribution
system.tol2bus.trans_dist::WritebackDirty      1174583                       # Transaction distribution
system.tol2bus.trans_dist::WritebackClean      1644705                       # Transaction distribution
system.tol2bus.trans_dist::CleanEvict          229522                       # Transaction distribution
system.tol2bus.trans_dist::ReadExReq           541650                       # Transaction distribution
system.tol2bus.trans_dist::ReadExResp          541649                       # Transaction distribution
system.tol2bus.trans_dist::ReadCleanReq       1644737                       # Transaction distribution
system.tol2bus.trans_dist::ReadSharedReq       464713                       # Transaction distribution
system.tol2bus.pkt_count_system.cpu0.icache.mem_side::system.l2.cpu_side        26489                       # Packet count per connected master and slave (bytes)
system.tol2bus.pkt_count_system.cpu0.dcache.mem_side::system.l2.cpu_side      1107243                       # Packet count per connected master and slave (bytes)
system.tol2bus.pkt_count_system.cpu1.icache.mem_side::system.l2.cpu_side      4907690                       # Packet count per connected master and slave (bytes)
system.tol2bus.pkt_count_system.cpu1.dcache.mem_side::system.l2.cpu_side      1911812                       # Packet count per connected master and slave (bytes)
system.tol2bus.pkt_count::total               7953234                       # Packet count per connected master and slave (bytes)
system.tol2bus.pkt_size_system.cpu0.icache.mem_side::system.l2.cpu_side      1129856                       # Cumulative packet size per connected master and slave (bytes)
system.tol2bus.pkt_size_system.cpu0.dcache.mem_side::system.l2.cpu_side     46336960                       # Cumulative packet size per connected master and slave (bytes)
system.tol2bus.pkt_size_system.cpu1.icache.mem_side::system.l2.cpu_side    209394432                       # Cumulative packet size per connected master and slave (bytes)
system.tol2bus.pkt_size_system.cpu1.dcache.mem_side::system.l2.cpu_side     68556544                       # Cumulative packet size per connected master and slave (bytes)
system.tol2bus.pkt_size::total              325417792                       # Cumulative packet size per connected master and slave (bytes)
system.tol2bus.snoops                          397775                       # Total snoops (count)
system.tol2bus.snoopTraffic                  24686976                       # Total snoop traffic (bytes)
system.tol2bus.snoop_fanout::samples          3048875                       # Request fanout histogram
system.tol2bus.snoop_fanout::mean            0.000505                       # Request fanout histogram
system.tol2bus.snoop_fanout::stdev           0.022462                       # Request fanout histogram
system.tol2bus.snoop_fanout::underflows             0      0.00%      0.00% # Request fanout histogram
system.tol2bus.snoop_fanout::0                3047336     99.95%     99.95% # Request fanout histogram
system.tol2bus.snoop_fanout::1                   1539      0.05%    100.00% # Request fanout histogram
system.tol2bus.snoop_fanout::2                      0      0.00%    100.00% # Request fanout histogram
system.tol2bus.snoop_fanout::3                      0      0.00%    100.00% # Request fanout histogram
system.tol2bus.snoop_fanout::4                      0      0.00%    100.00% # Request fanout histogram
system.tol2bus.snoop_fanout::5                      0      0.00%    100.00% # Request fanout histogram
system.tol2bus.snoop_fanout::6                      0      0.00%    100.00% # Request fanout histogram
system.tol2bus.snoop_fanout::7                      0      0.00%    100.00% # Request fanout histogram
system.tol2bus.snoop_fanout::8                      0      0.00%    100.00% # Request fanout histogram
system.tol2bus.snoop_fanout::overflows              0      0.00%    100.00% # Request fanout histogram
system.tol2bus.snoop_fanout::min_value              0                       # Request fanout histogram
system.tol2bus.snoop_fanout::max_value              1                       # Request fanout histogram
system.tol2bus.snoop_fanout::total            3048875                       # Request fanout histogram
system.tol2bus.reqLayer0.occupancy         5084621500                       # Layer occupancy (ticks)
system.tol2bus.reqLayer0.utilization             15.2                       # Layer utilization (%)
system.tol2bus.respLayer5.occupancy         955968887                       # Layer occupancy (ticks)
system.tol2bus.respLayer5.utilization             2.9                       # Layer utilization (%)
system.tol2bus.respLayer4.occupancy        2453913379                       # Layer occupancy (ticks)
system.tol2bus.respLayer4.utilization             7.3                       # Layer utilization (%)
system.tol2bus.respLayer1.occupancy         558787163                       # Layer occupancy (ticks)
system.tol2bus.respLayer1.utilization             1.7                       # Layer utilization (%)
system.tol2bus.respLayer0.occupancy          13311881                       # Layer occupancy (ticks)
system.tol2bus.respLayer0.utilization             0.0                       # Layer utilization (%)
system.tol2bus.power_state.pwrStateResidencyTicks::UNDEFINED  33396945000                       # Cumulative time (in ticks) in various power states

---------- End Simulation Statistics   ----------
