
---------- Begin Simulation Statistics ----------
final_tick                                47954266500                       # Number of ticks from beginning of simulation (restored from checkpoints and never reset)
host_inst_rate                                 168595                       # Simulator instruction rate (inst/s)
host_mem_usage                                4481056                       # Number of bytes of host memory used
host_op_rate                                   341984                       # Simulator op (including micro ops) rate (op/s)
host_seconds                                    85.72                       # Real time elapsed on the host
host_tick_rate                              559415170                       # Simulator tick rate (ticks/s)
sim_freq                                 1000000000000                       # Frequency of simulated ticks
sim_insts                                    14452295                       # Number of instructions simulated
sim_ops                                      29315582                       # Number of ops (including micro ops) simulated
sim_seconds                                  0.047954                       # Number of seconds simulated
sim_ticks                                 47954266500                       # Number of ticks simulated
system.cpu0.branchPred.BTBCorrect                   0                       # Number of correct BTB predictions (this stat may not work properly.
system.cpu0.branchPred.BTBHitPct                  nan                       # BTB Hit Percentage
system.cpu0.branchPred.BTBHits                      0                       # Number of BTB hits
system.cpu0.branchPred.BTBLookups                   0                       # Number of BTB lookups
system.cpu0.branchPred.RASInCorrect                 0                       # Number of incorrect RAS predictions.
system.cpu0.branchPred.condIncorrect               92                       # Number of conditional branches incorrect
system.cpu0.branchPred.condPredicted              285                       # Number of conditional branches predicted
system.cpu0.branchPred.indirectHits                 0                       # Number of indirect target hits.
system.cpu0.branchPred.indirectLookups             57                       # Number of indirect predictor lookups.
system.cpu0.branchPred.indirectMisses              57                       # Number of indirect misses.
system.cpu0.branchPred.lookups                    285                       # Number of BP lookups
system.cpu0.branchPred.usedRAS                      0                       # Number of times the RAS was used to get a target.
system.cpu0.branchPredindirectMispredicted           39                       # Number of mispredicted indirect branches.
system.cpu0.committedInsts                   10000000                       # Number of instructions committed
system.cpu0.committedOps                     20977542                       # Number of ops (including micro ops) committed
system.cpu0.cpi                              9.590853                       # CPI: cycles per instruction
system.cpu0.discardedOps                      5686978                       # Number of ops (including micro ops) which were discarded before commit
system.cpu0.dtb.rdAccesses                    2459484                       # TLB accesses on read requests
system.cpu0.dtb.rdMisses                        35063                       # TLB misses on read requests
system.cpu0.dtb.wrAccesses                    1493533                       # TLB accesses on write requests
system.cpu0.dtb.wrMisses                          536                       # TLB misses on write requests
system.cpu0.fetch2.amo_instructions                 0                       # Number of memory atomic instructions successfully decoded
system.cpu0.fetch2.fp_instructions                  0                       # Number of floating point instructions successfully decoded
system.cpu0.fetch2.int_instructions                29                       # Number of integer instructions successfully decoded
system.cpu0.fetch2.load_instructions                0                       # Number of memory load instructions successfully decoded
system.cpu0.fetch2.store_instructions               0                       # Number of memory store instructions successfully decoded
system.cpu0.fetch2.vec_instructions                 0                       # Number of SIMD instructions successfully decoded
system.cpu0.idleCycles                       55301475                       # Total number of cycles that the object has spent stopped
system.cpu0.ipc                              0.104266                       # IPC: instructions per cycle
system.cpu0.itb.rdAccesses                          0                       # TLB accesses on read requests
system.cpu0.itb.rdMisses                            0                       # TLB misses on read requests
system.cpu0.itb.wrAccesses                    5345698                       # TLB accesses on write requests
system.cpu0.itb.wrMisses                          606                       # TLB misses on write requests
system.cpu0.numCycles                        95908533                       # number of cpu cycles simulated
system.cpu0.numFetchSuspends                        0                       # Number of times Execute suspended instruction fetching
system.cpu0.numWorkItemsCompleted                   0                       # number of work items this cpu completed
system.cpu0.numWorkItemsStarted                     0                       # number of work items this cpu started
system.cpu0.op_class_0::No_OpClass             692868      3.30%      3.30% # Class of committed instruction
system.cpu0.op_class_0::IntAlu               16308207     77.74%     81.04% # Class of committed instruction
system.cpu0.op_class_0::IntMult                  2368      0.01%     81.06% # Class of committed instruction
system.cpu0.op_class_0::IntDiv                 162889      0.78%     81.83% # Class of committed instruction
system.cpu0.op_class_0::FloatAdd                25090      0.12%     81.95% # Class of committed instruction
system.cpu0.op_class_0::FloatCmp                    0      0.00%     81.95% # Class of committed instruction
system.cpu0.op_class_0::FloatCvt                 2096      0.01%     81.96% # Class of committed instruction
system.cpu0.op_class_0::FloatMult                   0      0.00%     81.96% # Class of committed instruction
system.cpu0.op_class_0::FloatMultAcc                0      0.00%     81.96% # Class of committed instruction
system.cpu0.op_class_0::FloatDiv                    0      0.00%     81.96% # Class of committed instruction
system.cpu0.op_class_0::FloatMisc                   0      0.00%     81.96% # Class of committed instruction
system.cpu0.op_class_0::FloatSqrt                   0      0.00%     81.96% # Class of committed instruction
system.cpu0.op_class_0::SimdAdd                 24906      0.12%     82.08% # Class of committed instruction
system.cpu0.op_class_0::SimdAddAcc                  0      0.00%     82.08% # Class of committed instruction
system.cpu0.op_class_0::SimdAlu                 86613      0.41%     82.49% # Class of committed instruction
system.cpu0.op_class_0::SimdCmp                  6936      0.03%     82.53% # Class of committed instruction
system.cpu0.op_class_0::SimdCvt                 95642      0.46%     82.98% # Class of committed instruction
system.cpu0.op_class_0::SimdMisc                89955      0.43%     83.41% # Class of committed instruction
system.cpu0.op_class_0::SimdMult                    0      0.00%     83.41% # Class of committed instruction
system.cpu0.op_class_0::SimdMultAcc                 0      0.00%     83.41% # Class of committed instruction
system.cpu0.op_class_0::SimdShift                6163      0.03%     83.44% # Class of committed instruction
system.cpu0.op_class_0::SimdShiftAcc                0      0.00%     83.44% # Class of committed instruction
system.cpu0.op_class_0::SimdDiv                     0      0.00%     83.44% # Class of committed instruction
system.cpu0.op_class_0::SimdSqrt                    0      0.00%     83.44% # Class of committed instruction
system.cpu0.op_class_0::SimdFloatAdd             1714      0.01%     83.45% # Class of committed instruction
system.cpu0.op_class_0::SimdFloatAlu                0      0.00%     83.45% # Class of committed instruction
system.cpu0.op_class_0::SimdFloatCmp                0      0.00%     83.45% # Class of committed instruction
system.cpu0.op_class_0::SimdFloatCvt             8287      0.04%     83.49% # Class of committed instruction
system.cpu0.op_class_0::SimdFloatDiv                0      0.00%     83.49% # Class of committed instruction
system.cpu0.op_class_0::SimdFloatMisc               0      0.00%     83.49% # Class of committed instruction
system.cpu0.op_class_0::SimdFloatMult              82      0.00%     83.49% # Class of committed instruction
system.cpu0.op_class_0::SimdFloatMultAcc            0      0.00%     83.49% # Class of committed instruction
system.cpu0.op_class_0::SimdFloatSqrt               0      0.00%     83.49% # Class of committed instruction
system.cpu0.op_class_0::SimdReduceAdd               0      0.00%     83.49% # Class of committed instruction
system.cpu0.op_class_0::SimdReduceAlu               0      0.00%     83.49% # Class of committed instruction
system.cpu0.op_class_0::SimdReduceCmp               0      0.00%     83.49% # Class of committed instruction
system.cpu0.op_class_0::SimdFloatReduceAdd            0      0.00%     83.49% # Class of committed instruction
system.cpu0.op_class_0::SimdFloatReduceCmp            0      0.00%     83.49% # Class of committed instruction
system.cpu0.op_class_0::SimdAes                     0      0.00%     83.49% # Class of committed instruction
system.cpu0.op_class_0::SimdAesMix                  0      0.00%     83.49% # Class of committed instruction
system.cpu0.op_class_0::SimdSha1Hash                0      0.00%     83.49% # Class of committed instruction
system.cpu0.op_class_0::SimdSha1Hash2               0      0.00%     83.49% # Class of committed instruction
system.cpu0.op_class_0::SimdSha256Hash              0      0.00%     83.49% # Class of committed instruction
system.cpu0.op_class_0::SimdSha256Hash2             0      0.00%     83.49% # Class of committed instruction
system.cpu0.op_class_0::SimdShaSigma2               0      0.00%     83.49% # Class of committed instruction
system.cpu0.op_class_0::SimdShaSigma3               0      0.00%     83.49% # Class of committed instruction
system.cpu0.op_class_0::SimdPredAlu                 0      0.00%     83.49% # Class of committed instruction
system.cpu0.op_class_0::MemRead               1890985      9.01%     92.50% # Class of committed instruction
system.cpu0.op_class_0::MemWrite              1365189      6.51%     99.01% # Class of committed instruction
system.cpu0.op_class_0::FloatMemRead           156640      0.75%     99.76% # Class of committed instruction
system.cpu0.op_class_0::FloatMemWrite           50912      0.24%    100.00% # Class of committed instruction
system.cpu0.op_class_0::IprAccess                   0      0.00%    100.00% # Class of committed instruction
system.cpu0.op_class_0::InstPrefetch                0      0.00%    100.00% # Class of committed instruction
system.cpu0.op_class_0::total                20977542                       # Class of committed instruction
system.cpu0.tickCycles                       40607058                       # Number of cycles that the object actually ticked
system.cpu0.workload.numSyscalls                   92                       # Number of system calls
system.cpu1.branchPred.BTBCorrect                   0                       # Number of correct BTB predictions (this stat may not work properly.
system.cpu1.branchPred.BTBHitPct                  nan                       # BTB Hit Percentage
system.cpu1.branchPred.BTBHits                      0                       # Number of BTB hits
system.cpu1.branchPred.BTBLookups                   0                       # Number of BTB lookups
system.cpu1.branchPred.RASInCorrect                 0                       # Number of incorrect RAS predictions.
system.cpu1.branchPred.condIncorrect               30                       # Number of conditional branches incorrect
system.cpu1.branchPred.condPredicted               68                       # Number of conditional branches predicted
system.cpu1.branchPred.indirectHits                 0                       # Number of indirect target hits.
system.cpu1.branchPred.indirectLookups             21                       # Number of indirect predictor lookups.
system.cpu1.branchPred.indirectMisses              21                       # Number of indirect misses.
system.cpu1.branchPred.lookups                     68                       # Number of BP lookups
system.cpu1.branchPred.usedRAS                      0                       # Number of times the RAS was used to get a target.
system.cpu1.branchPredindirectMispredicted           12                       # Number of mispredicted indirect branches.
system.cpu1.committedInsts                    4452295                       # Number of instructions committed
system.cpu1.committedOps                      8338040                       # Number of ops (including micro ops) committed
system.cpu1.cpi                             21.541359                       # CPI: cycles per instruction
system.cpu1.discardedOps                      2727499                       # Number of ops (including micro ops) which were discarded before commit
system.cpu1.dtb.rdAccesses                     710867                       # TLB accesses on read requests
system.cpu1.dtb.rdMisses                         2023                       # TLB misses on read requests
system.cpu1.dtb.wrAccesses                    4151263                       # TLB accesses on write requests
system.cpu1.dtb.wrMisses                        15777                       # TLB misses on write requests
system.cpu1.fetch2.amo_instructions                 0                       # Number of memory atomic instructions successfully decoded
system.cpu1.fetch2.fp_instructions                  0                       # Number of floating point instructions successfully decoded
system.cpu1.fetch2.int_instructions                 8                       # Number of integer instructions successfully decoded
system.cpu1.fetch2.load_instructions                0                       # Number of memory load instructions successfully decoded
system.cpu1.fetch2.store_instructions               0                       # Number of memory store instructions successfully decoded
system.cpu1.fetch2.vec_instructions                 0                       # Number of SIMD instructions successfully decoded
system.cpu1.idleCycles                       82046769                       # Total number of cycles that the object has spent stopped
system.cpu1.ipc                              0.046422                       # IPC: instructions per cycle
system.cpu1.itb.rdAccesses                          0                       # TLB accesses on read requests
system.cpu1.itb.rdMisses                            0                       # TLB misses on read requests
system.cpu1.itb.wrAccesses                    1734786                       # TLB accesses on write requests
system.cpu1.itb.wrMisses                          188                       # TLB misses on write requests
system.cpu1.numCycles                        95908487                       # number of cpu cycles simulated
system.cpu1.numFetchSuspends                        0                       # Number of times Execute suspended instruction fetching
system.cpu1.numWorkItemsCompleted                   0                       # number of work items this cpu completed
system.cpu1.numWorkItemsStarted                     0                       # number of work items this cpu started
system.cpu1.op_class_0::No_OpClass               2098      0.03%      0.03% # Class of committed instruction
system.cpu1.op_class_0::IntAlu                3979436     47.73%     47.75% # Class of committed instruction
system.cpu1.op_class_0::IntMult                   641      0.01%     47.76% # Class of committed instruction
system.cpu1.op_class_0::IntDiv                   1317      0.02%     47.77% # Class of committed instruction
system.cpu1.op_class_0::FloatAdd                  189      0.00%     47.78% # Class of committed instruction
system.cpu1.op_class_0::FloatCmp                    0      0.00%     47.78% # Class of committed instruction
system.cpu1.op_class_0::FloatCvt                   96      0.00%     47.78% # Class of committed instruction
system.cpu1.op_class_0::FloatMult                   0      0.00%     47.78% # Class of committed instruction
system.cpu1.op_class_0::FloatMultAcc                0      0.00%     47.78% # Class of committed instruction
system.cpu1.op_class_0::FloatDiv                    0      0.00%     47.78% # Class of committed instruction
system.cpu1.op_class_0::FloatMisc                   0      0.00%     47.78% # Class of committed instruction
system.cpu1.op_class_0::FloatSqrt                   0      0.00%     47.78% # Class of committed instruction
system.cpu1.op_class_0::SimdAdd                   916      0.01%     47.79% # Class of committed instruction
system.cpu1.op_class_0::SimdAddAcc                  0      0.00%     47.79% # Class of committed instruction
system.cpu1.op_class_0::SimdAlu                   943      0.01%     47.80% # Class of committed instruction
system.cpu1.op_class_0::SimdCmp                     0      0.00%     47.80% # Class of committed instruction
system.cpu1.op_class_0::SimdCvt                  1230      0.01%     47.82% # Class of committed instruction
system.cpu1.op_class_0::SimdMisc                  843      0.01%     47.83% # Class of committed instruction
system.cpu1.op_class_0::SimdMult                    0      0.00%     47.83% # Class of committed instruction
system.cpu1.op_class_0::SimdMultAcc                 0      0.00%     47.83% # Class of committed instruction
system.cpu1.op_class_0::SimdShift                 388      0.00%     47.83% # Class of committed instruction
system.cpu1.op_class_0::SimdShiftAcc                0      0.00%     47.83% # Class of committed instruction
system.cpu1.op_class_0::SimdDiv                     0      0.00%     47.83% # Class of committed instruction
system.cpu1.op_class_0::SimdSqrt                    0      0.00%     47.83% # Class of committed instruction
system.cpu1.op_class_0::SimdFloatAdd                0      0.00%     47.83% # Class of committed instruction
system.cpu1.op_class_0::SimdFloatAlu                0      0.00%     47.83% # Class of committed instruction
system.cpu1.op_class_0::SimdFloatCmp                0      0.00%     47.83% # Class of committed instruction
system.cpu1.op_class_0::SimdFloatCvt                0      0.00%     47.83% # Class of committed instruction
system.cpu1.op_class_0::SimdFloatDiv                0      0.00%     47.83% # Class of committed instruction
system.cpu1.op_class_0::SimdFloatMisc               0      0.00%     47.83% # Class of committed instruction
system.cpu1.op_class_0::SimdFloatMult               0      0.00%     47.83% # Class of committed instruction
system.cpu1.op_class_0::SimdFloatMultAcc            0      0.00%     47.83% # Class of committed instruction
system.cpu1.op_class_0::SimdFloatSqrt               0      0.00%     47.83% # Class of committed instruction
system.cpu1.op_class_0::SimdReduceAdd               0      0.00%     47.83% # Class of committed instruction
system.cpu1.op_class_0::SimdReduceAlu               0      0.00%     47.83% # Class of committed instruction
system.cpu1.op_class_0::SimdReduceCmp               0      0.00%     47.83% # Class of committed instruction
system.cpu1.op_class_0::SimdFloatReduceAdd            0      0.00%     47.83% # Class of committed instruction
system.cpu1.op_class_0::SimdFloatReduceCmp            0      0.00%     47.83% # Class of committed instruction
system.cpu1.op_class_0::SimdAes                     0      0.00%     47.83% # Class of committed instruction
system.cpu1.op_class_0::SimdAesMix                  0      0.00%     47.83% # Class of committed instruction
system.cpu1.op_class_0::SimdSha1Hash                0      0.00%     47.83% # Class of committed instruction
system.cpu1.op_class_0::SimdSha1Hash2               0      0.00%     47.83% # Class of committed instruction
system.cpu1.op_class_0::SimdSha256Hash              0      0.00%     47.83% # Class of committed instruction
system.cpu1.op_class_0::SimdSha256Hash2             0      0.00%     47.83% # Class of committed instruction
system.cpu1.op_class_0::SimdShaSigma2               0      0.00%     47.83% # Class of committed instruction
system.cpu1.op_class_0::SimdShaSigma3               0      0.00%     47.83% # Class of committed instruction
system.cpu1.op_class_0::SimdPredAlu                 0      0.00%     47.83% # Class of committed instruction
system.cpu1.op_class_0::MemRead                199681      2.39%     50.22% # Class of committed instruction
system.cpu1.op_class_0::MemWrite               133412      1.60%     51.83% # Class of committed instruction
system.cpu1.op_class_0::FloatMemRead             1610      0.02%     51.84% # Class of committed instruction
system.cpu1.op_class_0::FloatMemWrite         4015240     48.16%    100.00% # Class of committed instruction
system.cpu1.op_class_0::IprAccess                   0      0.00%    100.00% # Class of committed instruction
system.cpu1.op_class_0::InstPrefetch                0      0.00%    100.00% # Class of committed instruction
system.cpu1.op_class_0::total                 8338040                       # Class of committed instruction
system.cpu1.tickCycles                       13861718                       # Number of cycles that the object actually ticked
system.cpu1.workload.numSyscalls                   30                       # Number of system calls
system.membus.snoop_filter.hit_multi_requests            0                       # Number of requests hitting in the snoop filter with multiple (>1) holders of the requested data.
system.membus.snoop_filter.hit_multi_snoops            0                       # Number of snoops hitting in the snoop filter with multiple (>1) holders of the requested data.
system.membus.snoop_filter.hit_single_requests       760380                       # Number of requests hitting in the snoop filter with a single holder of the requested data.
system.membus.snoop_filter.hit_single_snoops            0                       # Number of snoops hitting in the snoop filter with a single holder of the requested data.
system.membus.snoop_filter.tot_requests       1521802                       # Total number of requests made to the snoop filter.
system.membus.snoop_filter.tot_snoops               0                       # Total number of snoops made to the snoop filter.
system.tol2bus.snoop_filter.hit_multi_requests            0                       # Number of requests hitting in the snoop filter with multiple (>1) holders of the requested data.
system.tol2bus.snoop_filter.hit_multi_snoops            0                       # Number of snoops hitting in the snoop filter with multiple (>1) holders of the requested data.
system.tol2bus.snoop_filter.hit_single_requests      2054171                       # Number of requests hitting in the snoop filter with a single holder of the requested data.
system.tol2bus.snoop_filter.hit_single_snoops          697                       # Number of snoops hitting in the snoop filter with a single holder of the requested data.
system.tol2bus.snoop_filter.tot_requests      4108408                       # Total number of requests made to the snoop filter.
system.tol2bus.snoop_filter.tot_snoops            697                       # Total number of snoops made to the snoop filter.
system.membus.trans_dist::ReadResp             231372                       # Transaction distribution
system.membus.trans_dist::WritebackDirty       538451                       # Transaction distribution
system.membus.trans_dist::CleanEvict           221929                       # Transaction distribution
system.membus.trans_dist::ReadExReq            530050                       # Transaction distribution
system.membus.trans_dist::ReadExResp           530049                       # Transaction distribution
system.membus.trans_dist::ReadSharedReq        231372                       # Transaction distribution
system.membus.pkt_count_system.l2.mem_side::system.mem_ctrls.port      2283223                       # Packet count per connected master and slave (bytes)
system.membus.pkt_count_system.l2.mem_side::total      2283223                       # Packet count per connected master and slave (bytes)
system.membus.pkt_count::total                2283223                       # Packet count per connected master and slave (bytes)
system.membus.pkt_size_system.l2.mem_side::system.mem_ctrls.port     83191808                       # Cumulative packet size per connected master and slave (bytes)
system.membus.pkt_size_system.l2.mem_side::total     83191808                       # Cumulative packet size per connected master and slave (bytes)
system.membus.pkt_size::total                83191808                       # Cumulative packet size per connected master and slave (bytes)
system.membus.snoops                                0                       # Total snoops (count)
system.membus.snoopTraffic                          0                       # Total snoop traffic (bytes)
system.membus.snoop_fanout::samples            761422                       # Request fanout histogram
system.membus.snoop_fanout::mean                    0                       # Request fanout histogram
system.membus.snoop_fanout::stdev                   0                       # Request fanout histogram
system.membus.snoop_fanout::underflows              0      0.00%      0.00% # Request fanout histogram
system.membus.snoop_fanout::0                  761422    100.00%    100.00% # Request fanout histogram
system.membus.snoop_fanout::1                       0      0.00%    100.00% # Request fanout histogram
system.membus.snoop_fanout::overflows               0      0.00%    100.00% # Request fanout histogram
system.membus.snoop_fanout::min_value               0                       # Request fanout histogram
system.membus.snoop_fanout::max_value               0                       # Request fanout histogram
system.membus.snoop_fanout::total              761422                       # Request fanout histogram
system.membus.reqLayer4.occupancy          3960601000                       # Layer occupancy (ticks)
system.membus.reqLayer4.utilization               8.3                       # Layer utilization (%)
system.membus.respLayer1.occupancy         4053569500                       # Layer occupancy (ticks)
system.membus.respLayer1.utilization              8.5                       # Layer utilization (%)
system.membus.power_state.pwrStateResidencyTicks::UNDEFINED  47954266500                       # Cumulative time (in ticks) in various power states
system.voltage_domain.voltage                       1                       # Voltage in Volts
system.clk_domain.clock                          1000                       # Clock period in ticks
system.cpu0.icache.demand_hits::.cpu0.inst      4212300                       # number of demand (read+write) hits
system.cpu0.icache.demand_hits::total         4212300                       # number of demand (read+write) hits
system.cpu0.icache.overall_hits::.cpu0.inst      4212300                       # number of overall hits
system.cpu0.icache.overall_hits::total        4212300                       # number of overall hits
system.cpu0.icache.demand_misses::.cpu0.inst      1133240                       # number of demand (read+write) misses
system.cpu0.icache.demand_misses::total       1133240                       # number of demand (read+write) misses
system.cpu0.icache.overall_misses::.cpu0.inst      1133240                       # number of overall misses
system.cpu0.icache.overall_misses::total      1133240                       # number of overall misses
system.cpu0.icache.demand_miss_latency::.cpu0.inst  27724030000                       # number of demand (read+write) miss cycles
system.cpu0.icache.demand_miss_latency::total  27724030000                       # number of demand (read+write) miss cycles
system.cpu0.icache.overall_miss_latency::.cpu0.inst  27724030000                       # number of overall miss cycles
system.cpu0.icache.overall_miss_latency::total  27724030000                       # number of overall miss cycles
system.cpu0.icache.demand_accesses::.cpu0.inst      5345540                       # number of demand (read+write) accesses
system.cpu0.icache.demand_accesses::total      5345540                       # number of demand (read+write) accesses
system.cpu0.icache.overall_accesses::.cpu0.inst      5345540                       # number of overall (read+write) accesses
system.cpu0.icache.overall_accesses::total      5345540                       # number of overall (read+write) accesses
system.cpu0.icache.demand_miss_rate::.cpu0.inst     0.211997                       # miss rate for demand accesses
system.cpu0.icache.demand_miss_rate::total     0.211997                       # miss rate for demand accesses
system.cpu0.icache.overall_miss_rate::.cpu0.inst     0.211997                       # miss rate for overall accesses
system.cpu0.icache.overall_miss_rate::total     0.211997                       # miss rate for overall accesses
system.cpu0.icache.demand_avg_miss_latency::.cpu0.inst 24464.394127                       # average overall miss latency
system.cpu0.icache.demand_avg_miss_latency::total 24464.394127                       # average overall miss latency
system.cpu0.icache.overall_avg_miss_latency::.cpu0.inst 24464.394127                       # average overall miss latency
system.cpu0.icache.overall_avg_miss_latency::total 24464.394127                       # average overall miss latency
system.cpu0.icache.blocked_cycles::no_mshrs            0                       # number of cycles access was blocked
system.cpu0.icache.blocked_cycles::no_targets            0                       # number of cycles access was blocked
system.cpu0.icache.blocked::no_mshrs                0                       # number of cycles access was blocked
system.cpu0.icache.blocked::no_targets              0                       # number of cycles access was blocked
system.cpu0.icache.avg_blocked_cycles::no_mshrs          nan                       # average number of cycles each access was blocked
system.cpu0.icache.avg_blocked_cycles::no_targets          nan                       # average number of cycles each access was blocked
system.cpu0.icache.writebacks::.writebacks      1133223                       # number of writebacks
system.cpu0.icache.writebacks::total          1133223                       # number of writebacks
system.cpu0.icache.demand_mshr_misses::.cpu0.inst      1133240                       # number of demand (read+write) MSHR misses
system.cpu0.icache.demand_mshr_misses::total      1133240                       # number of demand (read+write) MSHR misses
system.cpu0.icache.overall_mshr_misses::.cpu0.inst      1133240                       # number of overall MSHR misses
system.cpu0.icache.overall_mshr_misses::total      1133240                       # number of overall MSHR misses
system.cpu0.icache.demand_mshr_miss_latency::.cpu0.inst  26590791000                       # number of demand (read+write) MSHR miss cycles
system.cpu0.icache.demand_mshr_miss_latency::total  26590791000                       # number of demand (read+write) MSHR miss cycles
system.cpu0.icache.overall_mshr_miss_latency::.cpu0.inst  26590791000                       # number of overall MSHR miss cycles
system.cpu0.icache.overall_mshr_miss_latency::total  26590791000                       # number of overall MSHR miss cycles
system.cpu0.icache.demand_mshr_miss_rate::.cpu0.inst     0.211997                       # mshr miss rate for demand accesses
system.cpu0.icache.demand_mshr_miss_rate::total     0.211997                       # mshr miss rate for demand accesses
system.cpu0.icache.overall_mshr_miss_rate::.cpu0.inst     0.211997                       # mshr miss rate for overall accesses
system.cpu0.icache.overall_mshr_miss_rate::total     0.211997                       # mshr miss rate for overall accesses
system.cpu0.icache.demand_avg_mshr_miss_latency::.cpu0.inst 23464.395009                       # average overall mshr miss latency
system.cpu0.icache.demand_avg_mshr_miss_latency::total 23464.395009                       # average overall mshr miss latency
system.cpu0.icache.overall_avg_mshr_miss_latency::.cpu0.inst 23464.395009                       # average overall mshr miss latency
system.cpu0.icache.overall_avg_mshr_miss_latency::total 23464.395009                       # average overall mshr miss latency
system.cpu0.icache.replacements               1133223                       # number of replacements
system.cpu0.icache.ReadReq_hits::.cpu0.inst      4212300                       # number of ReadReq hits
system.cpu0.icache.ReadReq_hits::total        4212300                       # number of ReadReq hits
system.cpu0.icache.ReadReq_misses::.cpu0.inst      1133240                       # number of ReadReq misses
system.cpu0.icache.ReadReq_misses::total      1133240                       # number of ReadReq misses
system.cpu0.icache.ReadReq_miss_latency::.cpu0.inst  27724030000                       # number of ReadReq miss cycles
system.cpu0.icache.ReadReq_miss_latency::total  27724030000                       # number of ReadReq miss cycles
system.cpu0.icache.ReadReq_accesses::.cpu0.inst      5345540                       # number of ReadReq accesses(hits+misses)
system.cpu0.icache.ReadReq_accesses::total      5345540                       # number of ReadReq accesses(hits+misses)
system.cpu0.icache.ReadReq_miss_rate::.cpu0.inst     0.211997                       # miss rate for ReadReq accesses
system.cpu0.icache.ReadReq_miss_rate::total     0.211997                       # miss rate for ReadReq accesses
system.cpu0.icache.ReadReq_avg_miss_latency::.cpu0.inst 24464.394127                       # average ReadReq miss latency
system.cpu0.icache.ReadReq_avg_miss_latency::total 24464.394127                       # average ReadReq miss latency
system.cpu0.icache.ReadReq_mshr_misses::.cpu0.inst      1133240                       # number of ReadReq MSHR misses
system.cpu0.icache.ReadReq_mshr_misses::total      1133240                       # number of ReadReq MSHR misses
system.cpu0.icache.ReadReq_mshr_miss_latency::.cpu0.inst  26590791000                       # number of ReadReq MSHR miss cycles
system.cpu0.icache.ReadReq_mshr_miss_latency::total  26590791000                       # number of ReadReq MSHR miss cycles
system.cpu0.icache.ReadReq_mshr_miss_rate::.cpu0.inst     0.211997                       # mshr miss rate for ReadReq accesses
system.cpu0.icache.ReadReq_mshr_miss_rate::total     0.211997                       # mshr miss rate for ReadReq accesses
system.cpu0.icache.ReadReq_avg_mshr_miss_latency::.cpu0.inst 23464.395009                       # average ReadReq mshr miss latency
system.cpu0.icache.ReadReq_avg_mshr_miss_latency::total 23464.395009                       # average ReadReq mshr miss latency
system.cpu0.icache.power_state.pwrStateResidencyTicks::UNDEFINED  47954266500                       # Cumulative time (in ticks) in various power states
system.cpu0.icache.tags.tagsinuse           15.999712                       # Cycle average of tags in use
system.cpu0.icache.tags.total_refs            5345539                       # Total number of references to valid blocks.
system.cpu0.icache.tags.sampled_refs          1133239                       # Sample count of references to valid blocks.
system.cpu0.icache.tags.avg_refs             4.717045                       # Average number of references to valid blocks.
system.cpu0.icache.tags.warmup_cycle            87500                       # Cycle when the warmup percentage was hit.
system.cpu0.icache.tags.occ_blocks::.cpu0.inst    15.999712                       # Average occupied blocks per requestor
system.cpu0.icache.tags.occ_percent::.cpu0.inst     0.999982                       # Average percentage of cache occupancy
system.cpu0.icache.tags.occ_percent::total     0.999982                       # Average percentage of cache occupancy
system.cpu0.icache.tags.occ_task_id_blocks::1024           16                       # Occupied blocks per task id
system.cpu0.icache.tags.age_task_id_blocks_1024::0           16                       # Occupied blocks per task id
system.cpu0.icache.tags.occ_task_id_percent::1024            1                       # Percentage of cache occupancy per task id
system.cpu0.icache.tags.tag_accesses         43897559                       # Number of tag accesses
system.cpu0.icache.tags.data_accesses        43897559                       # Number of data accesses
system.cpu0.icache.tags.power_state.pwrStateResidencyTicks::UNDEFINED  47954266500                       # Cumulative time (in ticks) in various power states
system.cpu0.dtb.walker.power_state.pwrStateResidencyTicks::UNDEFINED  47954266500                       # Cumulative time (in ticks) in various power states
system.cpu0.interrupts.clk_domain.clock          8000                       # Clock period in ticks
system.cpu0.itb_walker_cache.blocked_cycles::no_mshrs            0                       # number of cycles access was blocked
system.cpu0.itb_walker_cache.blocked_cycles::no_targets            0                       # number of cycles access was blocked
system.cpu0.itb_walker_cache.blocked::no_mshrs            0                       # number of cycles access was blocked
system.cpu0.itb_walker_cache.blocked::no_targets            0                       # number of cycles access was blocked
system.cpu0.itb_walker_cache.avg_blocked_cycles::no_mshrs          nan                       # average number of cycles each access was blocked
system.cpu0.itb_walker_cache.avg_blocked_cycles::no_targets          nan                       # average number of cycles each access was blocked
system.cpu0.itb_walker_cache.replacements            0                       # number of replacements
system.cpu0.itb_walker_cache.power_state.pwrStateResidencyTicks::UNDEFINED  47954266500                       # Cumulative time (in ticks) in various power states
system.cpu0.itb_walker_cache.tags.tagsinuse            0                       # Cycle average of tags in use
system.cpu0.itb_walker_cache.tags.total_refs            0                       # Total number of references to valid blocks.
system.cpu0.itb_walker_cache.tags.sampled_refs            0                       # Sample count of references to valid blocks.
system.cpu0.itb_walker_cache.tags.avg_refs          nan                       # Average number of references to valid blocks.
system.cpu0.itb_walker_cache.tags.warmup_cycle            0                       # Cycle when the warmup percentage was hit.
system.cpu0.itb_walker_cache.tags.tag_accesses            0                       # Number of tag accesses
system.cpu0.itb_walker_cache.tags.data_accesses            0                       # Number of data accesses
system.cpu0.itb_walker_cache.tags.power_state.pwrStateResidencyTicks::UNDEFINED  47954266500                       # Cumulative time (in ticks) in various power states
system.cpu0.dtb_walker_cache.blocked_cycles::no_mshrs            0                       # number of cycles access was blocked
system.cpu0.dtb_walker_cache.blocked_cycles::no_targets            0                       # number of cycles access was blocked
system.cpu0.dtb_walker_cache.blocked::no_mshrs            0                       # number of cycles access was blocked
system.cpu0.dtb_walker_cache.blocked::no_targets            0                       # number of cycles access was blocked
system.cpu0.dtb_walker_cache.avg_blocked_cycles::no_mshrs          nan                       # average number of cycles each access was blocked
system.cpu0.dtb_walker_cache.avg_blocked_cycles::no_targets          nan                       # average number of cycles each access was blocked
system.cpu0.dtb_walker_cache.replacements            0                       # number of replacements
system.cpu0.dtb_walker_cache.power_state.pwrStateResidencyTicks::UNDEFINED  47954266500                       # Cumulative time (in ticks) in various power states
system.cpu0.dtb_walker_cache.tags.tagsinuse            0                       # Cycle average of tags in use
system.cpu0.dtb_walker_cache.tags.total_refs            0                       # Total number of references to valid blocks.
system.cpu0.dtb_walker_cache.tags.sampled_refs            0                       # Sample count of references to valid blocks.
system.cpu0.dtb_walker_cache.tags.avg_refs          nan                       # Average number of references to valid blocks.
system.cpu0.dtb_walker_cache.tags.warmup_cycle            0                       # Cycle when the warmup percentage was hit.
system.cpu0.dtb_walker_cache.tags.tag_accesses            0                       # Number of tag accesses
system.cpu0.dtb_walker_cache.tags.data_accesses            0                       # Number of data accesses
system.cpu0.dtb_walker_cache.tags.power_state.pwrStateResidencyTicks::UNDEFINED  47954266500                       # Cumulative time (in ticks) in various power states
system.cpu0.dcache.demand_hits::.cpu0.data      3324428                       # number of demand (read+write) hits
system.cpu0.dcache.demand_hits::total         3324428                       # number of demand (read+write) hits
system.cpu0.dcache.overall_hits::.cpu0.data      3325390                       # number of overall hits
system.cpu0.dcache.overall_hits::total        3325390                       # number of overall hits
system.cpu0.dcache.demand_misses::.cpu0.data       463002                       # number of demand (read+write) misses
system.cpu0.dcache.demand_misses::total        463002                       # number of demand (read+write) misses
system.cpu0.dcache.overall_misses::.cpu0.data       464094                       # number of overall misses
system.cpu0.dcache.overall_misses::total       464094                       # number of overall misses
system.cpu0.dcache.demand_miss_latency::.cpu0.data  14799813000                       # number of demand (read+write) miss cycles
system.cpu0.dcache.demand_miss_latency::total  14799813000                       # number of demand (read+write) miss cycles
system.cpu0.dcache.overall_miss_latency::.cpu0.data  14799813000                       # number of overall miss cycles
system.cpu0.dcache.overall_miss_latency::total  14799813000                       # number of overall miss cycles
system.cpu0.dcache.demand_accesses::.cpu0.data      3787430                       # number of demand (read+write) accesses
system.cpu0.dcache.demand_accesses::total      3787430                       # number of demand (read+write) accesses
system.cpu0.dcache.overall_accesses::.cpu0.data      3789484                       # number of overall (read+write) accesses
system.cpu0.dcache.overall_accesses::total      3789484                       # number of overall (read+write) accesses
system.cpu0.dcache.demand_miss_rate::.cpu0.data     0.122247                       # miss rate for demand accesses
system.cpu0.dcache.demand_miss_rate::total     0.122247                       # miss rate for demand accesses
system.cpu0.dcache.overall_miss_rate::.cpu0.data     0.122469                       # miss rate for overall accesses
system.cpu0.dcache.overall_miss_rate::total     0.122469                       # miss rate for overall accesses
system.cpu0.dcache.demand_avg_miss_latency::.cpu0.data 31964.900800                       # average overall miss latency
system.cpu0.dcache.demand_avg_miss_latency::total 31964.900800                       # average overall miss latency
system.cpu0.dcache.overall_avg_miss_latency::.cpu0.data 31889.688296                       # average overall miss latency
system.cpu0.dcache.overall_avg_miss_latency::total 31889.688296                       # average overall miss latency
system.cpu0.dcache.blocked_cycles::no_mshrs           93                       # number of cycles access was blocked
system.cpu0.dcache.blocked_cycles::no_targets            0                       # number of cycles access was blocked
system.cpu0.dcache.blocked::no_mshrs                1                       # number of cycles access was blocked
system.cpu0.dcache.blocked::no_targets              0                       # number of cycles access was blocked
system.cpu0.dcache.avg_blocked_cycles::no_mshrs           93                       # average number of cycles each access was blocked
system.cpu0.dcache.avg_blocked_cycles::no_targets          nan                       # average number of cycles each access was blocked
system.cpu0.dcache.writebacks::.writebacks       174225                       # number of writebacks
system.cpu0.dcache.writebacks::total           174225                       # number of writebacks
system.cpu0.dcache.demand_mshr_hits::.cpu0.data        77248                       # number of demand (read+write) MSHR hits
system.cpu0.dcache.demand_mshr_hits::total        77248                       # number of demand (read+write) MSHR hits
system.cpu0.dcache.overall_mshr_hits::.cpu0.data        77248                       # number of overall MSHR hits
system.cpu0.dcache.overall_mshr_hits::total        77248                       # number of overall MSHR hits
system.cpu0.dcache.demand_mshr_misses::.cpu0.data       385754                       # number of demand (read+write) MSHR misses
system.cpu0.dcache.demand_mshr_misses::total       385754                       # number of demand (read+write) MSHR misses
system.cpu0.dcache.overall_mshr_misses::.cpu0.data       386791                       # number of overall MSHR misses
system.cpu0.dcache.overall_mshr_misses::total       386791                       # number of overall MSHR misses
system.cpu0.dcache.demand_mshr_miss_latency::.cpu0.data  11727013500                       # number of demand (read+write) MSHR miss cycles
system.cpu0.dcache.demand_mshr_miss_latency::total  11727013500                       # number of demand (read+write) MSHR miss cycles
system.cpu0.dcache.overall_mshr_miss_latency::.cpu0.data  11799597000                       # number of overall MSHR miss cycles
system.cpu0.dcache.overall_mshr_miss_latency::total  11799597000                       # number of overall MSHR miss cycles
system.cpu0.dcache.demand_mshr_miss_rate::.cpu0.data     0.101851                       # mshr miss rate for demand accesses
system.cpu0.dcache.demand_mshr_miss_rate::total     0.101851                       # mshr miss rate for demand accesses
system.cpu0.dcache.overall_mshr_miss_rate::.cpu0.data     0.102070                       # mshr miss rate for overall accesses
system.cpu0.dcache.overall_mshr_miss_rate::total     0.102070                       # mshr miss rate for overall accesses
system.cpu0.dcache.demand_avg_mshr_miss_latency::.cpu0.data 30400.238235                       # average overall mshr miss latency
system.cpu0.dcache.demand_avg_mshr_miss_latency::total 30400.238235                       # average overall mshr miss latency
system.cpu0.dcache.overall_avg_mshr_miss_latency::.cpu0.data 30506.389756                       # average overall mshr miss latency
system.cpu0.dcache.overall_avg_mshr_miss_latency::total 30506.389756                       # average overall mshr miss latency
system.cpu0.dcache.replacements                386775                       # number of replacements
system.cpu0.dcache.ReadReq_hits::.cpu0.data      2072712                       # number of ReadReq hits
system.cpu0.dcache.ReadReq_hits::total        2072712                       # number of ReadReq hits
system.cpu0.dcache.ReadReq_misses::.cpu0.data       297617                       # number of ReadReq misses
system.cpu0.dcache.ReadReq_misses::total       297617                       # number of ReadReq misses
system.cpu0.dcache.ReadReq_miss_latency::.cpu0.data   9182750500                       # number of ReadReq miss cycles
system.cpu0.dcache.ReadReq_miss_latency::total   9182750500                       # number of ReadReq miss cycles
system.cpu0.dcache.ReadReq_accesses::.cpu0.data      2370329                       # number of ReadReq accesses(hits+misses)
system.cpu0.dcache.ReadReq_accesses::total      2370329                       # number of ReadReq accesses(hits+misses)
system.cpu0.dcache.ReadReq_miss_rate::.cpu0.data     0.125559                       # miss rate for ReadReq accesses
system.cpu0.dcache.ReadReq_miss_rate::total     0.125559                       # miss rate for ReadReq accesses
system.cpu0.dcache.ReadReq_avg_miss_latency::.cpu0.data 30854.253957                       # average ReadReq miss latency
system.cpu0.dcache.ReadReq_avg_miss_latency::total 30854.253957                       # average ReadReq miss latency
system.cpu0.dcache.ReadReq_mshr_hits::.cpu0.data        12932                       # number of ReadReq MSHR hits
system.cpu0.dcache.ReadReq_mshr_hits::total        12932                       # number of ReadReq MSHR hits
system.cpu0.dcache.ReadReq_mshr_misses::.cpu0.data       284685                       # number of ReadReq MSHR misses
system.cpu0.dcache.ReadReq_mshr_misses::total       284685                       # number of ReadReq MSHR misses
system.cpu0.dcache.ReadReq_mshr_miss_latency::.cpu0.data   8488656000                       # number of ReadReq MSHR miss cycles
system.cpu0.dcache.ReadReq_mshr_miss_latency::total   8488656000                       # number of ReadReq MSHR miss cycles
system.cpu0.dcache.ReadReq_mshr_miss_rate::.cpu0.data     0.120104                       # mshr miss rate for ReadReq accesses
system.cpu0.dcache.ReadReq_mshr_miss_rate::total     0.120104                       # mshr miss rate for ReadReq accesses
system.cpu0.dcache.ReadReq_avg_mshr_miss_latency::.cpu0.data 29817.714316                       # average ReadReq mshr miss latency
system.cpu0.dcache.ReadReq_avg_mshr_miss_latency::total 29817.714316                       # average ReadReq mshr miss latency
system.cpu0.dcache.WriteReq_hits::.cpu0.data      1251716                       # number of WriteReq hits
system.cpu0.dcache.WriteReq_hits::total       1251716                       # number of WriteReq hits
system.cpu0.dcache.WriteReq_misses::.cpu0.data       165385                       # number of WriteReq misses
system.cpu0.dcache.WriteReq_misses::total       165385                       # number of WriteReq misses
system.cpu0.dcache.WriteReq_miss_latency::.cpu0.data   5617062500                       # number of WriteReq miss cycles
system.cpu0.dcache.WriteReq_miss_latency::total   5617062500                       # number of WriteReq miss cycles
system.cpu0.dcache.WriteReq_accesses::.cpu0.data      1417101                       # number of WriteReq accesses(hits+misses)
system.cpu0.dcache.WriteReq_accesses::total      1417101                       # number of WriteReq accesses(hits+misses)
system.cpu0.dcache.WriteReq_miss_rate::.cpu0.data     0.116707                       # miss rate for WriteReq accesses
system.cpu0.dcache.WriteReq_miss_rate::total     0.116707                       # miss rate for WriteReq accesses
system.cpu0.dcache.WriteReq_avg_miss_latency::.cpu0.data 33963.554736                       # average WriteReq miss latency
system.cpu0.dcache.WriteReq_avg_miss_latency::total 33963.554736                       # average WriteReq miss latency
system.cpu0.dcache.WriteReq_mshr_hits::.cpu0.data        64316                       # number of WriteReq MSHR hits
system.cpu0.dcache.WriteReq_mshr_hits::total        64316                       # number of WriteReq MSHR hits
system.cpu0.dcache.WriteReq_mshr_misses::.cpu0.data       101069                       # number of WriteReq MSHR misses
system.cpu0.dcache.WriteReq_mshr_misses::total       101069                       # number of WriteReq MSHR misses
system.cpu0.dcache.WriteReq_mshr_miss_latency::.cpu0.data   3238357500                       # number of WriteReq MSHR miss cycles
system.cpu0.dcache.WriteReq_mshr_miss_latency::total   3238357500                       # number of WriteReq MSHR miss cycles
system.cpu0.dcache.WriteReq_mshr_miss_rate::.cpu0.data     0.071321                       # mshr miss rate for WriteReq accesses
system.cpu0.dcache.WriteReq_mshr_miss_rate::total     0.071321                       # mshr miss rate for WriteReq accesses
system.cpu0.dcache.WriteReq_avg_mshr_miss_latency::.cpu0.data 32041.056110                       # average WriteReq mshr miss latency
system.cpu0.dcache.WriteReq_avg_mshr_miss_latency::total 32041.056110                       # average WriteReq mshr miss latency
system.cpu0.dcache.SoftPFReq_hits::.cpu0.data          962                       # number of SoftPFReq hits
system.cpu0.dcache.SoftPFReq_hits::total          962                       # number of SoftPFReq hits
system.cpu0.dcache.SoftPFReq_misses::.cpu0.data         1092                       # number of SoftPFReq misses
system.cpu0.dcache.SoftPFReq_misses::total         1092                       # number of SoftPFReq misses
system.cpu0.dcache.SoftPFReq_accesses::.cpu0.data         2054                       # number of SoftPFReq accesses(hits+misses)
system.cpu0.dcache.SoftPFReq_accesses::total         2054                       # number of SoftPFReq accesses(hits+misses)
system.cpu0.dcache.SoftPFReq_miss_rate::.cpu0.data     0.531646                       # miss rate for SoftPFReq accesses
system.cpu0.dcache.SoftPFReq_miss_rate::total     0.531646                       # miss rate for SoftPFReq accesses
system.cpu0.dcache.SoftPFReq_mshr_misses::.cpu0.data         1037                       # number of SoftPFReq MSHR misses
system.cpu0.dcache.SoftPFReq_mshr_misses::total         1037                       # number of SoftPFReq MSHR misses
system.cpu0.dcache.SoftPFReq_mshr_miss_latency::.cpu0.data     72583500                       # number of SoftPFReq MSHR miss cycles
system.cpu0.dcache.SoftPFReq_mshr_miss_latency::total     72583500                       # number of SoftPFReq MSHR miss cycles
system.cpu0.dcache.SoftPFReq_mshr_miss_rate::.cpu0.data     0.504869                       # mshr miss rate for SoftPFReq accesses
system.cpu0.dcache.SoftPFReq_mshr_miss_rate::total     0.504869                       # mshr miss rate for SoftPFReq accesses
system.cpu0.dcache.SoftPFReq_avg_mshr_miss_latency::.cpu0.data 69993.731919                       # average SoftPFReq mshr miss latency
system.cpu0.dcache.SoftPFReq_avg_mshr_miss_latency::total 69993.731919                       # average SoftPFReq mshr miss latency
system.cpu0.dcache.power_state.pwrStateResidencyTicks::UNDEFINED  47954266500                       # Cumulative time (in ticks) in various power states
system.cpu0.dcache.tags.tagsinuse           15.999730                       # Cycle average of tags in use
system.cpu0.dcache.tags.total_refs            3712181                       # Total number of references to valid blocks.
system.cpu0.dcache.tags.sampled_refs           386791                       # Sample count of references to valid blocks.
system.cpu0.dcache.tags.avg_refs             9.597382                       # Average number of references to valid blocks.
system.cpu0.dcache.tags.warmup_cycle           178500                       # Cycle when the warmup percentage was hit.
system.cpu0.dcache.tags.occ_blocks::.cpu0.data    15.999730                       # Average occupied blocks per requestor
system.cpu0.dcache.tags.occ_percent::.cpu0.data     0.999983                       # Average percentage of cache occupancy
system.cpu0.dcache.tags.occ_percent::total     0.999983                       # Average percentage of cache occupancy
system.cpu0.dcache.tags.occ_task_id_blocks::1024           16                       # Occupied blocks per task id
system.cpu0.dcache.tags.age_task_id_blocks_1024::0           16                       # Occupied blocks per task id
system.cpu0.dcache.tags.occ_task_id_percent::1024            1                       # Percentage of cache occupancy per task id
system.cpu0.dcache.tags.tag_accesses         30702663                       # Number of tag accesses
system.cpu0.dcache.tags.data_accesses        30702663                       # Number of data accesses
system.cpu0.dcache.tags.power_state.pwrStateResidencyTicks::UNDEFINED  47954266500                       # Cumulative time (in ticks) in various power states
system.cpu0.power_state.pwrStateResidencyTicks::ON  47954266500                       # Cumulative time (in ticks) in various power states
system.cpu0.itb.walker.power_state.pwrStateResidencyTicks::UNDEFINED  47954266500                       # Cumulative time (in ticks) in various power states
system.cpu1.icache.demand_hits::.cpu1.inst      1725845                       # number of demand (read+write) hits
system.cpu1.icache.demand_hits::total         1725845                       # number of demand (read+write) hits
system.cpu1.icache.overall_hits::.cpu1.inst      1725845                       # number of overall hits
system.cpu1.icache.overall_hits::total        1725845                       # number of overall hits
system.cpu1.icache.demand_misses::.cpu1.inst         8898                       # number of demand (read+write) misses
system.cpu1.icache.demand_misses::total          8898                       # number of demand (read+write) misses
system.cpu1.icache.overall_misses::.cpu1.inst         8898                       # number of overall misses
system.cpu1.icache.overall_misses::total         8898                       # number of overall misses
system.cpu1.icache.demand_miss_latency::.cpu1.inst    229361000                       # number of demand (read+write) miss cycles
system.cpu1.icache.demand_miss_latency::total    229361000                       # number of demand (read+write) miss cycles
system.cpu1.icache.overall_miss_latency::.cpu1.inst    229361000                       # number of overall miss cycles
system.cpu1.icache.overall_miss_latency::total    229361000                       # number of overall miss cycles
system.cpu1.icache.demand_accesses::.cpu1.inst      1734743                       # number of demand (read+write) accesses
system.cpu1.icache.demand_accesses::total      1734743                       # number of demand (read+write) accesses
system.cpu1.icache.overall_accesses::.cpu1.inst      1734743                       # number of overall (read+write) accesses
system.cpu1.icache.overall_accesses::total      1734743                       # number of overall (read+write) accesses
system.cpu1.icache.demand_miss_rate::.cpu1.inst     0.005129                       # miss rate for demand accesses
system.cpu1.icache.demand_miss_rate::total     0.005129                       # miss rate for demand accesses
system.cpu1.icache.overall_miss_rate::.cpu1.inst     0.005129                       # miss rate for overall accesses
system.cpu1.icache.overall_miss_rate::total     0.005129                       # miss rate for overall accesses
system.cpu1.icache.demand_avg_miss_latency::.cpu1.inst 25776.691391                       # average overall miss latency
system.cpu1.icache.demand_avg_miss_latency::total 25776.691391                       # average overall miss latency
system.cpu1.icache.overall_avg_miss_latency::.cpu1.inst 25776.691391                       # average overall miss latency
system.cpu1.icache.overall_avg_miss_latency::total 25776.691391                       # average overall miss latency
system.cpu1.icache.blocked_cycles::no_mshrs            0                       # number of cycles access was blocked
system.cpu1.icache.blocked_cycles::no_targets            0                       # number of cycles access was blocked
system.cpu1.icache.blocked::no_mshrs                0                       # number of cycles access was blocked
system.cpu1.icache.blocked::no_targets              0                       # number of cycles access was blocked
system.cpu1.icache.avg_blocked_cycles::no_mshrs          nan                       # average number of cycles each access was blocked
system.cpu1.icache.avg_blocked_cycles::no_targets          nan                       # average number of cycles each access was blocked
system.cpu1.icache.writebacks::.writebacks         8882                       # number of writebacks
system.cpu1.icache.writebacks::total             8882                       # number of writebacks
system.cpu1.icache.demand_mshr_misses::.cpu1.inst         8898                       # number of demand (read+write) MSHR misses
system.cpu1.icache.demand_mshr_misses::total         8898                       # number of demand (read+write) MSHR misses
system.cpu1.icache.overall_mshr_misses::.cpu1.inst         8898                       # number of overall MSHR misses
system.cpu1.icache.overall_mshr_misses::total         8898                       # number of overall MSHR misses
system.cpu1.icache.demand_mshr_miss_latency::.cpu1.inst    220463000                       # number of demand (read+write) MSHR miss cycles
system.cpu1.icache.demand_mshr_miss_latency::total    220463000                       # number of demand (read+write) MSHR miss cycles
system.cpu1.icache.overall_mshr_miss_latency::.cpu1.inst    220463000                       # number of overall MSHR miss cycles
system.cpu1.icache.overall_mshr_miss_latency::total    220463000                       # number of overall MSHR miss cycles
system.cpu1.icache.demand_mshr_miss_rate::.cpu1.inst     0.005129                       # mshr miss rate for demand accesses
system.cpu1.icache.demand_mshr_miss_rate::total     0.005129                       # mshr miss rate for demand accesses
system.cpu1.icache.overall_mshr_miss_rate::.cpu1.inst     0.005129                       # mshr miss rate for overall accesses
system.cpu1.icache.overall_mshr_miss_rate::total     0.005129                       # mshr miss rate for overall accesses
system.cpu1.icache.demand_avg_mshr_miss_latency::.cpu1.inst 24776.691391                       # average overall mshr miss latency
system.cpu1.icache.demand_avg_mshr_miss_latency::total 24776.691391                       # average overall mshr miss latency
system.cpu1.icache.overall_avg_mshr_miss_latency::.cpu1.inst 24776.691391                       # average overall mshr miss latency
system.cpu1.icache.overall_avg_mshr_miss_latency::total 24776.691391                       # average overall mshr miss latency
system.cpu1.icache.replacements                  8882                       # number of replacements
system.cpu1.icache.ReadReq_hits::.cpu1.inst      1725845                       # number of ReadReq hits
system.cpu1.icache.ReadReq_hits::total        1725845                       # number of ReadReq hits
system.cpu1.icache.ReadReq_misses::.cpu1.inst         8898                       # number of ReadReq misses
system.cpu1.icache.ReadReq_misses::total         8898                       # number of ReadReq misses
system.cpu1.icache.ReadReq_miss_latency::.cpu1.inst    229361000                       # number of ReadReq miss cycles
system.cpu1.icache.ReadReq_miss_latency::total    229361000                       # number of ReadReq miss cycles
system.cpu1.icache.ReadReq_accesses::.cpu1.inst      1734743                       # number of ReadReq accesses(hits+misses)
system.cpu1.icache.ReadReq_accesses::total      1734743                       # number of ReadReq accesses(hits+misses)
system.cpu1.icache.ReadReq_miss_rate::.cpu1.inst     0.005129                       # miss rate for ReadReq accesses
system.cpu1.icache.ReadReq_miss_rate::total     0.005129                       # miss rate for ReadReq accesses
system.cpu1.icache.ReadReq_avg_miss_latency::.cpu1.inst 25776.691391                       # average ReadReq miss latency
system.cpu1.icache.ReadReq_avg_miss_latency::total 25776.691391                       # average ReadReq miss latency
system.cpu1.icache.ReadReq_mshr_misses::.cpu1.inst         8898                       # number of ReadReq MSHR misses
system.cpu1.icache.ReadReq_mshr_misses::total         8898                       # number of ReadReq MSHR misses
system.cpu1.icache.ReadReq_mshr_miss_latency::.cpu1.inst    220463000                       # number of ReadReq MSHR miss cycles
system.cpu1.icache.ReadReq_mshr_miss_latency::total    220463000                       # number of ReadReq MSHR miss cycles
system.cpu1.icache.ReadReq_mshr_miss_rate::.cpu1.inst     0.005129                       # mshr miss rate for ReadReq accesses
system.cpu1.icache.ReadReq_mshr_miss_rate::total     0.005129                       # mshr miss rate for ReadReq accesses
system.cpu1.icache.ReadReq_avg_mshr_miss_latency::.cpu1.inst 24776.691391                       # average ReadReq mshr miss latency
system.cpu1.icache.ReadReq_avg_mshr_miss_latency::total 24776.691391                       # average ReadReq mshr miss latency
system.cpu1.icache.power_state.pwrStateResidencyTicks::UNDEFINED  47954266500                       # Cumulative time (in ticks) in various power states
system.cpu1.icache.tags.tagsinuse           15.999698                       # Cycle average of tags in use
system.cpu1.icache.tags.total_refs            1734743                       # Total number of references to valid blocks.
system.cpu1.icache.tags.sampled_refs             8898                       # Sample count of references to valid blocks.
system.cpu1.icache.tags.avg_refs           194.958755                       # Average number of references to valid blocks.
system.cpu1.icache.tags.warmup_cycle            92500                       # Cycle when the warmup percentage was hit.
system.cpu1.icache.tags.occ_blocks::.cpu1.inst    15.999698                       # Average occupied blocks per requestor
system.cpu1.icache.tags.occ_percent::.cpu1.inst     0.999981                       # Average percentage of cache occupancy
system.cpu1.icache.tags.occ_percent::total     0.999981                       # Average percentage of cache occupancy
system.cpu1.icache.tags.occ_task_id_blocks::1024           16                       # Occupied blocks per task id
system.cpu1.icache.tags.age_task_id_blocks_1024::4           16                       # Occupied blocks per task id
system.cpu1.icache.tags.occ_task_id_percent::1024            1                       # Percentage of cache occupancy per task id
system.cpu1.icache.tags.tag_accesses         13886842                       # Number of tag accesses
system.cpu1.icache.tags.data_accesses        13886842                       # Number of data accesses
system.cpu1.icache.tags.power_state.pwrStateResidencyTicks::UNDEFINED  47954266500                       # Cumulative time (in ticks) in various power states
system.cpu1.dtb.walker.power_state.pwrStateResidencyTicks::UNDEFINED  47954266500                       # Cumulative time (in ticks) in various power states
system.cpu1.interrupts.clk_domain.clock          8000                       # Clock period in ticks
system.cpu1.itb_walker_cache.blocked_cycles::no_mshrs            0                       # number of cycles access was blocked
system.cpu1.itb_walker_cache.blocked_cycles::no_targets            0                       # number of cycles access was blocked
system.cpu1.itb_walker_cache.blocked::no_mshrs            0                       # number of cycles access was blocked
system.cpu1.itb_walker_cache.blocked::no_targets            0                       # number of cycles access was blocked
system.cpu1.itb_walker_cache.avg_blocked_cycles::no_mshrs          nan                       # average number of cycles each access was blocked
system.cpu1.itb_walker_cache.avg_blocked_cycles::no_targets          nan                       # average number of cycles each access was blocked
system.cpu1.itb_walker_cache.replacements            0                       # number of replacements
system.cpu1.itb_walker_cache.power_state.pwrStateResidencyTicks::UNDEFINED  47954266500                       # Cumulative time (in ticks) in various power states
system.cpu1.itb_walker_cache.tags.tagsinuse            0                       # Cycle average of tags in use
system.cpu1.itb_walker_cache.tags.total_refs            0                       # Total number of references to valid blocks.
system.cpu1.itb_walker_cache.tags.sampled_refs            0                       # Sample count of references to valid blocks.
system.cpu1.itb_walker_cache.tags.avg_refs          nan                       # Average number of references to valid blocks.
system.cpu1.itb_walker_cache.tags.warmup_cycle            0                       # Cycle when the warmup percentage was hit.
system.cpu1.itb_walker_cache.tags.tag_accesses            0                       # Number of tag accesses
system.cpu1.itb_walker_cache.tags.data_accesses            0                       # Number of data accesses
system.cpu1.itb_walker_cache.tags.power_state.pwrStateResidencyTicks::UNDEFINED  47954266500                       # Cumulative time (in ticks) in various power states
system.cpu1.dtb_walker_cache.blocked_cycles::no_mshrs            0                       # number of cycles access was blocked
system.cpu1.dtb_walker_cache.blocked_cycles::no_targets            0                       # number of cycles access was blocked
system.cpu1.dtb_walker_cache.blocked::no_mshrs            0                       # number of cycles access was blocked
system.cpu1.dtb_walker_cache.blocked::no_targets            0                       # number of cycles access was blocked
system.cpu1.dtb_walker_cache.avg_blocked_cycles::no_mshrs          nan                       # average number of cycles each access was blocked
system.cpu1.dtb_walker_cache.avg_blocked_cycles::no_targets          nan                       # average number of cycles each access was blocked
system.cpu1.dtb_walker_cache.replacements            0                       # number of replacements
system.cpu1.dtb_walker_cache.power_state.pwrStateResidencyTicks::UNDEFINED  47954266500                       # Cumulative time (in ticks) in various power states
system.cpu1.dtb_walker_cache.tags.tagsinuse            0                       # Cycle average of tags in use
system.cpu1.dtb_walker_cache.tags.total_refs            0                       # Total number of references to valid blocks.
system.cpu1.dtb_walker_cache.tags.sampled_refs            0                       # Sample count of references to valid blocks.
system.cpu1.dtb_walker_cache.tags.avg_refs          nan                       # Average number of references to valid blocks.
system.cpu1.dtb_walker_cache.tags.warmup_cycle            0                       # Cycle when the warmup percentage was hit.
system.cpu1.dtb_walker_cache.tags.tag_accesses            0                       # Number of tag accesses
system.cpu1.dtb_walker_cache.tags.data_accesses            0                       # Number of data accesses
system.cpu1.dtb_walker_cache.tags.power_state.pwrStateResidencyTicks::UNDEFINED  47954266500                       # Cumulative time (in ticks) in various power states
system.cpu1.dcache.demand_hits::.cpu1.data      3816978                       # number of demand (read+write) hits
system.cpu1.dcache.demand_hits::total         3816978                       # number of demand (read+write) hits
system.cpu1.dcache.overall_hits::.cpu1.data      3816978                       # number of overall hits
system.cpu1.dcache.overall_hits::total        3816978                       # number of overall hits
system.cpu1.dcache.demand_misses::.cpu1.data      1032164                       # number of demand (read+write) misses
system.cpu1.dcache.demand_misses::total       1032164                       # number of demand (read+write) misses
system.cpu1.dcache.overall_misses::.cpu1.data      1032164                       # number of overall misses
system.cpu1.dcache.overall_misses::total      1032164                       # number of overall misses
system.cpu1.dcache.demand_miss_latency::.cpu1.data  85446405500                       # number of demand (read+write) miss cycles
system.cpu1.dcache.demand_miss_latency::total  85446405500                       # number of demand (read+write) miss cycles
system.cpu1.dcache.overall_miss_latency::.cpu1.data  85446405500                       # number of overall miss cycles
system.cpu1.dcache.overall_miss_latency::total  85446405500                       # number of overall miss cycles
system.cpu1.dcache.demand_accesses::.cpu1.data      4849142                       # number of demand (read+write) accesses
system.cpu1.dcache.demand_accesses::total      4849142                       # number of demand (read+write) accesses
system.cpu1.dcache.overall_accesses::.cpu1.data      4849142                       # number of overall (read+write) accesses
system.cpu1.dcache.overall_accesses::total      4849142                       # number of overall (read+write) accesses
system.cpu1.dcache.demand_miss_rate::.cpu1.data     0.212855                       # miss rate for demand accesses
system.cpu1.dcache.demand_miss_rate::total     0.212855                       # miss rate for demand accesses
system.cpu1.dcache.overall_miss_rate::.cpu1.data     0.212855                       # miss rate for overall accesses
system.cpu1.dcache.overall_miss_rate::total     0.212855                       # miss rate for overall accesses
system.cpu1.dcache.demand_avg_miss_latency::.cpu1.data 82783.748997                       # average overall miss latency
system.cpu1.dcache.demand_avg_miss_latency::total 82783.748997                       # average overall miss latency
system.cpu1.dcache.overall_avg_miss_latency::.cpu1.data 82783.748997                       # average overall miss latency
system.cpu1.dcache.overall_avg_miss_latency::total 82783.748997                       # average overall miss latency
system.cpu1.dcache.blocked_cycles::no_mshrs            0                       # number of cycles access was blocked
system.cpu1.dcache.blocked_cycles::no_targets            0                       # number of cycles access was blocked
system.cpu1.dcache.blocked::no_mshrs                0                       # number of cycles access was blocked
system.cpu1.dcache.blocked::no_targets              0                       # number of cycles access was blocked
system.cpu1.dcache.avg_blocked_cycles::no_mshrs          nan                       # average number of cycles each access was blocked
system.cpu1.dcache.avg_blocked_cycles::no_targets          nan                       # average number of cycles each access was blocked
system.cpu1.dcache.writebacks::.writebacks       511029                       # number of writebacks
system.cpu1.dcache.writebacks::total           511029                       # number of writebacks
system.cpu1.dcache.demand_mshr_hits::.cpu1.data       506856                       # number of demand (read+write) MSHR hits
system.cpu1.dcache.demand_mshr_hits::total       506856                       # number of demand (read+write) MSHR hits
system.cpu1.dcache.overall_mshr_hits::.cpu1.data       506856                       # number of overall MSHR hits
system.cpu1.dcache.overall_mshr_hits::total       506856                       # number of overall MSHR hits
system.cpu1.dcache.demand_mshr_misses::.cpu1.data       525308                       # number of demand (read+write) MSHR misses
system.cpu1.dcache.demand_mshr_misses::total       525308                       # number of demand (read+write) MSHR misses
system.cpu1.dcache.overall_mshr_misses::.cpu1.data       525308                       # number of overall MSHR misses
system.cpu1.dcache.overall_mshr_misses::total       525308                       # number of overall MSHR misses
system.cpu1.dcache.demand_mshr_miss_latency::.cpu1.data  42405836500                       # number of demand (read+write) MSHR miss cycles
system.cpu1.dcache.demand_mshr_miss_latency::total  42405836500                       # number of demand (read+write) MSHR miss cycles
system.cpu1.dcache.overall_mshr_miss_latency::.cpu1.data  42405836500                       # number of overall MSHR miss cycles
system.cpu1.dcache.overall_mshr_miss_latency::total  42405836500                       # number of overall MSHR miss cycles
system.cpu1.dcache.demand_mshr_miss_rate::.cpu1.data     0.108330                       # mshr miss rate for demand accesses
system.cpu1.dcache.demand_mshr_miss_rate::total     0.108330                       # mshr miss rate for demand accesses
system.cpu1.dcache.overall_mshr_miss_rate::.cpu1.data     0.108330                       # mshr miss rate for overall accesses
system.cpu1.dcache.overall_mshr_miss_rate::total     0.108330                       # mshr miss rate for overall accesses
system.cpu1.dcache.demand_avg_mshr_miss_latency::.cpu1.data 80725.662849                       # average overall mshr miss latency
system.cpu1.dcache.demand_avg_mshr_miss_latency::total 80725.662849                       # average overall mshr miss latency
system.cpu1.dcache.overall_avg_mshr_miss_latency::.cpu1.data 80725.662849                       # average overall mshr miss latency
system.cpu1.dcache.overall_avg_mshr_miss_latency::total 80725.662849                       # average overall mshr miss latency
system.cpu1.dcache.replacements                525291                       # number of replacements
system.cpu1.dcache.ReadReq_hits::.cpu1.data       691929                       # number of ReadReq hits
system.cpu1.dcache.ReadReq_hits::total         691929                       # number of ReadReq hits
system.cpu1.dcache.ReadReq_misses::.cpu1.data        16403                       # number of ReadReq misses
system.cpu1.dcache.ReadReq_misses::total        16403                       # number of ReadReq misses
system.cpu1.dcache.ReadReq_miss_latency::.cpu1.data    413448000                       # number of ReadReq miss cycles
system.cpu1.dcache.ReadReq_miss_latency::total    413448000                       # number of ReadReq miss cycles
system.cpu1.dcache.ReadReq_accesses::.cpu1.data       708332                       # number of ReadReq accesses(hits+misses)
system.cpu1.dcache.ReadReq_accesses::total       708332                       # number of ReadReq accesses(hits+misses)
system.cpu1.dcache.ReadReq_miss_rate::.cpu1.data     0.023157                       # miss rate for ReadReq accesses
system.cpu1.dcache.ReadReq_miss_rate::total     0.023157                       # miss rate for ReadReq accesses
system.cpu1.dcache.ReadReq_avg_miss_latency::.cpu1.data 25205.633116                       # average ReadReq miss latency
system.cpu1.dcache.ReadReq_avg_miss_latency::total 25205.633116                       # average ReadReq miss latency
system.cpu1.dcache.ReadReq_mshr_hits::.cpu1.data          302                       # number of ReadReq MSHR hits
system.cpu1.dcache.ReadReq_mshr_hits::total          302                       # number of ReadReq MSHR hits
[...]
system.mem_ctrls.bytesPerActivate::stdev   389.917597                       # Bytes accessed per row activation
system.mem_ctrls.bytesPerActivate::0-127        91764     41.40%     41.40% # Bytes accessed per row activation
system.mem_ctrls.bytesPerActivate::128-255        35963     16.23%     57.63% # Bytes accessed per row activation
system.mem_ctrls.bytesPerActivate::256-383        16841      7.60%     65.23% # Bytes accessed per row activation
system.mem_ctrls.bytesPerActivate::384-511         9749      4.40%     69.62% # Bytes accessed per row activation
system.mem_ctrls.bytesPerActivate::512-639         5843      2.64%     72.26% # Bytes accessed per row activation
system.mem_ctrls.bytesPerActivate::640-767         5003      2.26%     74.52% # Bytes accessed per row activation
system.mem_ctrls.bytesPerActivate::768-895         4444      2.01%     76.52% # Bytes accessed per row activation
system.mem_ctrls.bytesPerActivate::896-1023         4509      2.03%     78.56% # Bytes accessed per row activation
system.mem_ctrls.bytesPerActivate::1024-1151        47525     21.44%    100.00% # Bytes accessed per row activation
system.mem_ctrls.bytesPerActivate::total       221641                       # Bytes accessed per row activation
system.mem_ctrls.rdPerTurnAround::samples        33575                       # Reads before turning the bus around for writes
system.mem_ctrls.rdPerTurnAround::mean      22.613552                       # Reads before turning the bus around for writes
system.mem_ctrls.rdPerTurnAround::gmean     22.016760                       # Reads before turning the bus around for writes
system.mem_ctrls.rdPerTurnAround::stdev      8.268447                       # Reads before turning the bus around for writes
system.mem_ctrls.rdPerTurnAround::0-31          32761     97.58%     97.58% # Reads before turning the bus around for writes
system.mem_ctrls.rdPerTurnAround::32-63           749      2.23%     99.81% # Reads before turning the bus around for writes
system.mem_ctrls.rdPerTurnAround::64-95            32      0.10%     99.90% # Reads before turning the bus around for writes
system.mem_ctrls.rdPerTurnAround::96-127           13      0.04%     99.94% # Reads before turning the bus around for writes
system.mem_ctrls.rdPerTurnAround::128-159            8      0.02%     99.96% # Reads before turning the bus around for writes
system.mem_ctrls.rdPerTurnAround::160-191            4      0.01%     99.98% # Reads before turning the bus around for writes
system.mem_ctrls.rdPerTurnAround::192-223            3      0.01%     99.99% # Reads before turning the bus around for writes
system.mem_ctrls.rdPerTurnAround::224-255            1      0.00%     99.99% # Reads before turning the bus around for writes
system.mem_ctrls.rdPerTurnAround::288-319            2      0.01%     99.99% # Reads before turning the bus around for writes
system.mem_ctrls.rdPerTurnAround::416-447            1      0.00%    100.00% # Reads before turning the bus around for writes
system.mem_ctrls.rdPerTurnAround::864-895            1      0.00%    100.00% # Reads before turning the bus around for writes
system.mem_ctrls.rdPerTurnAround::total         33575                       # Reads before turning the bus around for writes
system.mem_ctrls.wrPerTurnAround::samples        33575                       # Writes before turning the bus around for reads
system.mem_ctrls.wrPerTurnAround::mean      16.034937                       # Writes before turning the bus around for reads
system.mem_ctrls.wrPerTurnAround::gmean     16.032238                       # Writes before turning the bus around for reads
system.mem_ctrls.wrPerTurnAround::stdev      0.311034                       # Writes before turning the bus around for reads
system.mem_ctrls.wrPerTurnAround::16            33121     98.65%     98.65% # Writes before turning the bus around for reads
system.mem_ctrls.wrPerTurnAround::17               46      0.14%     98.78% # Writes before turning the bus around for reads
system.mem_ctrls.wrPerTurnAround::18              125      0.37%     99.16% # Writes before turning the bus around for reads
system.mem_ctrls.wrPerTurnAround::19              255      0.76%     99.92% # Writes before turning the bus around for reads
system.mem_ctrls.wrPerTurnAround::20               28      0.08%    100.00% # Writes before turning the bus around for reads
system.mem_ctrls.wrPerTurnAround::total         33575                       # Writes before turning the bus around for reads
system.mem_ctrls.bytesReadDRAM               48592128                       # Total number of bytes read from DRAM
system.mem_ctrls.bytesReadWrQ                  138880                       # Total number of bytes read from write queue
system.mem_ctrls.bytesWritten                34455872                       # Total number of bytes written to DRAM
system.mem_ctrls.bytesReadSys                48731008                       # Total read bytes from the system interface side
system.mem_ctrls.bytesWrittenSys             34460864                       # Total written bytes from the system interface side
system.mem_ctrls.avgRdBW                      1013.30                       # Average DRAM read bandwidth in MiByte/s
system.mem_ctrls.avgWrBW                       718.52                       # Average achieved write bandwidth in MiByte/s
system.mem_ctrls.avgRdBWSys                   1016.20                       # Average system read bandwidth in MiByte/s
system.mem_ctrls.avgWrBWSys                    718.62                       # Average system write bandwidth in MiByte/s
system.mem_ctrls.peakBW                      12800.00                       # Theoretical peak bandwidth in MiByte/s
system.mem_ctrls.busUtil                        13.53                       # Data bus utilization in percentage
system.mem_ctrls.busUtilRead                     7.92                       # Data bus utilization in percentage for reads
system.mem_ctrls.busUtilWrite                    5.61                       # Data bus utilization in percentage for writes
system.mem_ctrls.totGap                   47954239500                       # Total gap between requests
system.mem_ctrls.avgGap                      36891.48                       # Average gap between requests
system.mem_ctrls.masterReadBytes::.cpu0.inst     10642432                       # Per-master bytes read from memory
system.mem_ctrls.masterReadBytes::.cpu0.data      5421184                       # Per-master bytes read from memory
system.mem_ctrls.masterReadBytes::.cpu1.inst        99840                       # Per-master bytes read from memory
system.mem_ctrls.masterReadBytes::.cpu1.data     32428672                       # Per-master bytes read from memory
system.mem_ctrls.masterWriteBytes::.writebacks     34455872                       # Per-master bytes write to memory
system.mem_ctrls.masterReadRate::.cpu0.inst 221928782.916531503201                       # Per-master bytes read from memory rate (Bytes/sec)
system.mem_ctrls.masterReadRate::.cpu0.data 113049044.343113869429                       # Per-master bytes read from memory rate (Bytes/sec)
system.mem_ctrls.masterReadRate::.cpu1.inst 2081983.675008354010                       # Per-master bytes read from memory rate (Bytes/sec)
system.mem_ctrls.masterReadRate::.cpu1.data 676241643.691912174225                       # Per-master bytes read from memory rate (Bytes/sec)
system.mem_ctrls.masterWriteRate::.writebacks 718515254.529020905495                       # Per-master bytes write to memory rate (Bytes/sec)
system.mem_ctrls.masterReadAccesses::.cpu0.inst       166288                       # Per-master read serviced memory accesses
system.mem_ctrls.masterReadAccesses::.cpu0.data        86847                       # Per-master read serviced memory accesses
system.mem_ctrls.masterReadAccesses::.cpu1.inst         1560                       # Per-master read serviced memory accesses
system.mem_ctrls.masterReadAccesses::.cpu1.data       506727                       # Per-master read serviced memory accesses
system.mem_ctrls.masterWriteAccesses::.writebacks       538451                       # Per-master write serviced memory accesses
system.mem_ctrls.masterReadTotalLat::.cpu0.inst   6001309250                       # Per-master read total memory access latency
system.mem_ctrls.masterReadTotalLat::.cpu0.data   3560770000                       # Per-master read total memory access latency
system.mem_ctrls.masterReadTotalLat::.cpu1.inst     46256500                       # Per-master read total memory access latency
system.mem_ctrls.masterReadTotalLat::.cpu1.data  15350368000                       # Per-master read total memory access latency
system.mem_ctrls.masterWriteTotalLat::.writebacks 1191012603250                       # Per-master write total memory access latency
system.mem_ctrls.masterReadAvgLat::.cpu0.inst     36089.85                       # Per-master read average memory access latency
system.mem_ctrls.masterReadAvgLat::.cpu0.data     41000.50                       # Per-master read average memory access latency
system.mem_ctrls.masterReadAvgLat::.cpu1.inst     29651.60                       # Per-master read average memory access latency
system.mem_ctrls.masterReadAvgLat::.cpu1.data     30293.17                       # Per-master read average memory access latency
system.mem_ctrls.masterWriteAvgLat::.writebacks   2211923.84                       # Per-master write average memory access latency
system.mem_ctrls.pageHitRate                    82.92                       # Row buffer hit rate, read and write combined
system.mem_ctrls.rank1.actEnergy            787884720                       # Energy for activate commands per rank (pJ)
system.mem_ctrls.rank1.preEnergy            418740300                       # Energy for precharge commands per rank (pJ)
system.mem_ctrls.rank1.readEnergy          2867345460                       # Energy for read commands per rank (pJ)
system.mem_ctrls.rank1.writeEnergy         1380209760                       # Energy for write commands per rank (pJ)
system.mem_ctrls.rank1.refreshEnergy     3784953120.000000                       # Energy for refresh commands per rank (pJ)
system.mem_ctrls.rank1.actBackEnergy      21181983180                       # Energy for active background per rank (pJ)
system.mem_ctrls.rank1.preBackEnergy        576979200                       # Energy for precharge background per rank (pJ)
system.mem_ctrls.rank1.actPowerDownEnergy            0                       # Energy for active power-down per rank (pJ)
system.mem_ctrls.rank1.prePowerDownEnergy            0                       # Energy for precharge power-down per rank (pJ)
system.mem_ctrls.rank1.selfRefreshEnergy            0                       # Energy for self refresh per rank (pJ)
system.mem_ctrls.rank1.totalEnergy        30998095740                       # Total energy per rank (pJ)
system.mem_ctrls.rank1.averagePower        646.409548                       # Core power per rank (mW)
system.mem_ctrls.rank1.totalIdleTime                0                       # Total Idle time Per DRAM Rank
system.mem_ctrls.rank1.memoryStateTime::IDLE   1288670000                       # Time in different power states
system.mem_ctrls.rank1.memoryStateTime::REF   1601080000                       # Time in different power states
system.mem_ctrls.rank1.memoryStateTime::SREF            0                       # Time in different power states
system.mem_ctrls.rank1.memoryStateTime::PRE_PDN            0                       # Time in different power states
system.mem_ctrls.rank1.memoryStateTime::ACT  45064516500                       # Time in different power states
system.mem_ctrls.rank1.memoryStateTime::ACT_PDN            0                       # Time in different power states
system.mem_ctrls.rank0.actEnergy            794739120                       # Energy for activate commands per rank (pJ)
system.mem_ctrls.rank0.preEnergy            422387295                       # Energy for precharge commands per rank (pJ)
system.mem_ctrls.rank0.readEnergy          2553713820                       # Energy for read commands per rank (pJ)
system.mem_ctrls.rank0.writeEnergy         1430097300                       # Energy for write commands per rank (pJ)
system.mem_ctrls.rank0.refreshEnergy     3784953120.000000                       # Energy for refresh commands per rank (pJ)
system.mem_ctrls.rank0.actBackEnergy      20927454240                       # Energy for active background per rank (pJ)
system.mem_ctrls.rank0.preBackEnergy        791319360                       # Energy for precharge background per rank (pJ)
system.mem_ctrls.rank0.actPowerDownEnergy            0                       # Energy for active power-down per rank (pJ)
system.mem_ctrls.rank0.prePowerDownEnergy            0                       # Energy for precharge power-down per rank (pJ)
system.mem_ctrls.rank0.selfRefreshEnergy            0                       # Energy for self refresh per rank (pJ)
system.mem_ctrls.rank0.totalEnergy        30704664255                       # Total energy per rank (pJ)
system.mem_ctrls.rank0.averagePower        640.290562                       # Core power per rank (mW)
system.mem_ctrls.rank0.totalIdleTime                0                       # Total Idle time Per DRAM Rank
system.mem_ctrls.rank0.memoryStateTime::IDLE   1856202500                       # Time in different power states
system.mem_ctrls.rank0.memoryStateTime::REF   1601080000                       # Time in different power states
system.mem_ctrls.rank0.memoryStateTime::SREF            0                       # Time in different power states
system.mem_ctrls.rank0.memoryStateTime::PRE_PDN            0                       # Time in different power states
system.mem_ctrls.rank0.memoryStateTime::ACT  44496984000                       # Time in different power states
system.mem_ctrls.rank0.memoryStateTime::ACT_PDN            0                       # Time in different power states
system.mem_ctrls.power_state.pwrStateResidencyTicks::UNDEFINED  47954266500                       # Cumulative time (in ticks) in various power states
system.cpu_clk_domain.clock                       500                       # Clock period in ticks
system.tol2bus.trans_dist::ReadResp           1443929                       # Transaction distribution
system.tol2bus.trans_dist::WritebackDirty      1223705                       # Transaction distribution
system.tol2bus.trans_dist::WritebackClean      1142105                       # Transaction distribution
system.tol2bus.trans_dist::CleanEvict          449144                       # Transaction distribution
system.tol2bus.trans_dist::ReadExReq           610307                       # Transaction distribution
system.tol2bus.trans_dist::ReadExResp          610306                       # Transaction distribution
system.tol2bus.trans_dist::ReadCleanReq       1142138                       # Transaction distribution
system.tol2bus.trans_dist::ReadSharedReq       301792                       # Transaction distribution
system.tol2bus.pkt_count_system.cpu0.icache.mem_side::system.l2.cpu_side      3399702                       # Packet count per connected master and slave (bytes)
system.tol2bus.pkt_count_system.cpu0.dcache.mem_side::system.l2.cpu_side      1160357                       # Packet count per connected master and slave (bytes)
system.tol2bus.pkt_count_system.cpu1.icache.mem_side::system.l2.cpu_side        26678                       # Packet count per connected master and slave (bytes)
system.tol2bus.pkt_count_system.cpu1.dcache.mem_side::system.l2.cpu_side      1575906                       # Packet count per connected master and slave (bytes)
system.tol2bus.pkt_count::total               6162643                       # Packet count per connected master and slave (bytes)
system.tol2bus.pkt_size_system.cpu0.icache.mem_side::system.l2.cpu_side    145053568                       # Cumulative packet size per connected master and slave (bytes)
system.tol2bus.pkt_size_system.cpu0.dcache.mem_side::system.l2.cpu_side     35905024                       # Cumulative packet size per connected master and slave (bytes)
system.tol2bus.pkt_size_system.cpu1.icache.mem_side::system.l2.cpu_side      1137920                       # Cumulative packet size per connected master and slave (bytes)
system.tol2bus.pkt_size_system.cpu1.dcache.mem_side::system.l2.cpu_side     66325504                       # Cumulative packet size per connected master and slave (bytes)
system.tol2bus.pkt_size::total              248422016                       # Cumulative packet size per connected master and slave (bytes)
system.tol2bus.snoops                          760783                       # Total snoops (count)
system.tol2bus.snoopTraffic                  34460864                       # Total snoop traffic (bytes)
system.tol2bus.snoop_fanout::samples          2815020                       # Request fanout histogram
system.tol2bus.snoop_fanout::mean            0.000248                       # Request fanout histogram
system.tol2bus.snoop_fanout::stdev           0.015733                       # Request fanout histogram
system.tol2bus.snoop_fanout::underflows             0      0.00%      0.00% # Request fanout histogram
system.tol2bus.snoop_fanout::0                2814323     99.98%     99.98% # Request fanout histogram
system.tol2bus.snoop_fanout::1                    697      0.02%    100.00% # Request fanout histogram
system.tol2bus.snoop_fanout::2                      0      0.00%    100.00% # Request fanout histogram
system.tol2bus.snoop_fanout::3                      0      0.00%    100.00% # Request fanout histogram
system.tol2bus.snoop_fanout::4                      0      0.00%    100.00% # Request fanout histogram
system.tol2bus.snoop_fanout::5                      0      0.00%    100.00% # Request fanout histogram
system.tol2bus.snoop_fanout::6                      0      0.00%    100.00% # Request fanout histogram
system.tol2bus.snoop_fanout::7                      0      0.00%    100.00% # Request fanout histogram
system.tol2bus.snoop_fanout::8                      0      0.00%    100.00% # Request fanout histogram
system.tol2bus.snoop_fanout::overflows              0      0.00%    100.00% # Request fanout histogram
system.tol2bus.snoop_fanout::min_value              0                       # Request fanout histogram
system.tol2bus.snoop_fanout::max_value              1                       # Request fanout histogram
system.tol2bus.snoop_fanout::total            2815020                       # Request fanout histogram
system.tol2bus.reqLayer0.occupancy         3881563000                       # Layer occupancy (ticks)
system.tol2bus.reqLayer0.utilization              8.1                       # Layer utilization (%)
system.tol2bus.respLayer5.occupancy         792040324                       # Layer occupancy (ticks)
system.tol2bus.respLayer5.utilization             1.7                       # Layer utilization (%)
system.tol2bus.respLayer4.occupancy          13363966                       # Layer occupancy (ticks)
system.tol2bus.respLayer4.utilization             0.0                       # Layer utilization (%)
system.tol2bus.respLayer1.occupancy         580275322                       # Layer occupancy (ticks)
system.tol2bus.respLayer1.utilization             1.2                       # Layer utilization (%)
system.tol2bus.respLayer0.occupancy        1699908400                       # Layer occupancy (ticks)
system.tol2bus.respLayer0.utilization             3.5                       # Layer utilization (%)
system.tol2bus.power_state.pwrStateResidencyTicks::UNDEFINED  47954266500                       # Cumulative time (in ticks) in various power states

---------- End Simulation Statistics   ----------
