
---------- Begin Simulation Statistics ----------
final_tick                                14574006500                       # Number of ticks from beginning of simulation (restored from checkpoints and never reset)
host_inst_rate                                 197446                       # Simulator instruction rate (inst/s)
host_mem_usage                                4426476                       # Number of bytes of host memory used
host_op_rate                                   346041                       # Simulator op (including micro ops) rate (op/s)
host_seconds                                    72.48                       # Real time elapsed on the host
host_tick_rate                              201063087                       # Simulator tick rate (ticks/s)
sim_freq                                 1000000000000                       # Frequency of simulated ticks
sim_insts                                    14311839                       # Number of instructions simulated
sim_ops                                      25082706                       # Number of ops (including micro ops) simulated
sim_seconds                                  0.014574                       # Number of seconds simulated
sim_ticks                                 14574006500                       # Number of ticks simulated
system.cpu0.branchPred.BTBCorrect                   0                       # Number of correct BTB predictions (this stat may not work properly.
system.cpu0.branchPred.BTBHitPct                  nan                       # BTB Hit Percentage
system.cpu0.branchPred.BTBHits                      0                       # Number of BTB hits
system.cpu0.branchPred.BTBLookups                   0                       # Number of BTB lookups
system.cpu0.branchPred.RASInCorrect                 0                       # Number of incorrect RAS predictions.
system.cpu0.branchPred.condIncorrect               43                       # Number of conditional branches incorrect
system.cpu0.branchPred.condPredicted               87                       # Number of conditional branches predicted
system.cpu0.branchPred.indirectHits                 0                       # Number of indirect target hits.
system.cpu0.branchPred.indirectLookups             34                       # Number of indirect predictor lookups.
system.cpu0.branchPred.indirectMisses              34                       # Number of indirect misses.
system.cpu0.branchPred.lookups                     87                       # Number of BP lookups
system.cpu0.branchPred.usedRAS                      0                       # Number of times the RAS was used to get a target.
system.cpu0.branchPredindirectMispredicted           21                       # Number of mispredicted indirect branches.
system.cpu0.committedInsts                   10000000                       # Number of instructions committed
system.cpu0.committedOps                     16927931                       # Number of ops (including micro ops) committed
system.cpu0.cpi                              2.914801                       # CPI: cycles per instruction
system.cpu0.discardedOps                      2872084                       # Number of ops (including micro ops) which were discarded before commit
system.cpu0.dtb.rdAccesses                    4157427                       # TLB accesses on read requests
system.cpu0.dtb.rdMisses                         2423                       # TLB misses on read requests
system.cpu0.dtb.wrAccesses                    2003160                       # TLB accesses on write requests
system.cpu0.dtb.wrMisses                         1711                       # TLB misses on write requests
system.cpu0.fetch2.amo_instructions                 0                       # Number of memory atomic instructions successfully decoded
system.cpu0.fetch2.fp_instructions                  0                       # Number of floating point instructions successfully decoded
system.cpu0.fetch2.int_instructions                 8                       # Number of integer instructions successfully decoded
system.cpu0.fetch2.load_instructions                0                       # Number of memory load instructions successfully decoded
system.cpu0.fetch2.store_instructions               0                       # Number of memory store instructions successfully decoded
system.cpu0.fetch2.vec_instructions                 0                       # Number of SIMD instructions successfully decoded
system.cpu0.idleCycles                        6215209                       # Total number of cycles that the object has spent stopped
system.cpu0.ipc                              0.343077                       # IPC: instructions per cycle
system.cpu0.itb.rdAccesses                          0                       # TLB accesses on read requests
system.cpu0.itb.rdMisses                            0                       # TLB misses on read requests
system.cpu0.itb.wrAccesses                    2443073                       # TLB accesses on write requests
system.cpu0.itb.wrMisses                          189                       # TLB misses on write requests
system.cpu0.numCycles                        29148013                       # number of cpu cycles simulated
system.cpu0.numFetchSuspends                        0                       # Number of times Execute suspended instruction fetching
system.cpu0.numWorkItemsCompleted                   0                       # number of work items this cpu completed
system.cpu0.numWorkItemsStarted                     0                       # number of work items this cpu started
system.cpu0.op_class_0::No_OpClass              31838      0.19%      0.19% # Class of committed instruction
system.cpu0.op_class_0::IntAlu               11081465     65.46%     65.65% # Class of committed instruction
system.cpu0.op_class_0::IntMult                    77      0.00%     65.65% # Class of committed instruction
system.cpu0.op_class_0::IntDiv                   1369      0.01%     65.66% # Class of committed instruction
system.cpu0.op_class_0::FloatAdd                  223      0.00%     65.66% # Class of committed instruction
system.cpu0.op_class_0::FloatCmp                    0      0.00%     65.66% # Class of committed instruction
system.cpu0.op_class_0::FloatCvt                  176      0.00%     65.66% # Class of committed instruction
system.cpu0.op_class_0::FloatMult                   0      0.00%     65.66% # Class of committed instruction
system.cpu0.op_class_0::FloatMultAcc                0      0.00%     65.66% # Class of committed instruction
system.cpu0.op_class_0::FloatDiv                    0      0.00%     65.66% # Class of committed instruction
system.cpu0.op_class_0::FloatMisc                   0      0.00%     65.66% # Class of committed instruction
system.cpu0.op_class_0::FloatSqrt                   0      0.00%     65.66% # Class of committed instruction
system.cpu0.op_class_0::SimdAdd                   952      0.01%     65.67% # Class of committed instruction
system.cpu0.op_class_0::SimdAddAcc                  0      0.00%     65.67% # Class of committed instruction
system.cpu0.op_class_0::SimdAlu                   988      0.01%     65.67% # Class of committed instruction
system.cpu0.op_class_0::SimdCmp                     0      0.00%     65.67% # Class of committed instruction
system.cpu0.op_class_0::SimdCvt                  1344      0.01%     65.68% # Class of committed instruction
system.cpu0.op_class_0::SimdMisc                  912      0.01%     65.69% # Class of committed instruction
system.cpu0.op_class_0::SimdMult                    0      0.00%     65.69% # Class of committed instruction
system.cpu0.op_class_0::SimdMultAcc                 0      0.00%     65.69% # Class of committed instruction
system.cpu0.op_class_0::SimdShift                 333      0.00%     65.69% # Class of committed instruction
system.cpu0.op_class_0::SimdShiftAcc                0      0.00%     65.69% # Class of committed instruction
system.cpu0.op_class_0::SimdDiv                     0      0.00%     65.69% # Class of committed instruction
system.cpu0.op_class_0::SimdSqrt                    0      0.00%     65.69% # Class of committed instruction
system.cpu0.op_class_0::SimdFloatAdd                0      0.00%     65.69% # Class of committed instruction
system.cpu0.op_class_0::SimdFloatAlu                0      0.00%     65.69% # Class of committed instruction
system.cpu0.op_class_0::SimdFloatCmp                0      0.00%     65.69% # Class of committed instruction
system.cpu0.op_class_0::SimdFloatCvt                0      0.00%     65.69% # Class of committed instruction
system.cpu0.op_class_0::SimdFloatDiv                0      0.00%     65.69% # Class of committed instruction
system.cpu0.op_class_0::SimdFloatMisc               0      0.00%     65.69% # Class of committed instruction
system.cpu0.op_class_0::SimdFloatMult               0      0.00%     65.69% # Class of committed instruction
system.cpu0.op_class_0::SimdFloatMultAcc            0      0.00%     65.69% # Class of committed instruction
system.cpu0.op_class_0::SimdFloatSqrt               0      0.00%     65.69% # Class of committed instruction
system.cpu0.op_class_0::SimdReduceAdd               0      0.00%     65.69% # Class of committed instruction
system.cpu0.op_class_0::SimdReduceAlu               0      0.00%     65.69% # Class of committed instruction
system.cpu0.op_class_0::SimdReduceCmp               0      0.00%     65.69% # Class of committed instruction
system.cpu0.op_class_0::SimdFloatReduceAdd            0      0.00%     65.69% # Class of committed instruction
system.cpu0.op_class_0::SimdFloatReduceCmp            0      0.00%     65.69% # Class of committed instruction
system.cpu0.op_class_0::SimdAes                     0      0.00%     65.69% # Class of committed instruction
system.cpu0.op_class_0::SimdAesMix                  0      0.00%     65.69% # Class of committed instruction
system.cpu0.op_class_0::SimdSha1Hash                0      0.00%     65.69% # Class of committed instruction
system.cpu0.op_class_0::SimdSha1Hash2               0      0.00%     65.69% # Class of committed instruction
system.cpu0.op_class_0::SimdSha256Hash              0      0.00%     65.69% # Class of committed instruction
system.cpu0.op_class_0::SimdSha256Hash2             0      0.00%     65.69% # Class of committed instruction
system.cpu0.op_class_0::SimdShaSigma2               0      0.00%     65.69% # Class of committed instruction
system.cpu0.op_class_0::SimdShaSigma3               0      0.00%     65.69% # Class of committed instruction
system.cpu0.op_class_0::SimdPredAlu                 0      0.00%     65.69% # Class of committed instruction
system.cpu0.op_class_0::MemRead               3833806     22.65%     88.34% # Class of committed instruction
system.cpu0.op_class_0::MemWrite              1911134     11.29%     99.63% # Class of committed instruction
system.cpu0.op_class_0::FloatMemRead            31918      0.19%     99.81% # Class of committed instruction
system.cpu0.op_class_0::FloatMemWrite           31396      0.19%    100.00% # Class of committed instruction
system.cpu0.op_class_0::IprAccess                   0      0.00%    100.00% # Class of committed instruction
system.cpu0.op_class_0::InstPrefetch                0      0.00%    100.00% # Class of committed instruction
system.cpu0.op_class_0::total                16927931                       # Class of committed instruction
system.cpu0.tickCycles                       22932804                       # Number of cycles that the object actually ticked
system.cpu0.workload.numSyscalls                   43                       # Number of system calls
system.cpu1.branchPred.BTBCorrect                   0                       # Number of correct BTB predictions (this stat may not work properly.
system.cpu1.branchPred.BTBHitPct                  nan                       # BTB Hit Percentage
system.cpu1.branchPred.BTBHits                      0                       # Number of BTB hits
system.cpu1.branchPred.BTBLookups                   0                       # Number of BTB lookups
system.cpu1.branchPred.RASInCorrect                 0                       # Number of incorrect RAS predictions.
system.cpu1.branchPred.condIncorrect               35                       # Number of conditional branches incorrect
system.cpu1.branchPred.condPredicted               76                       # Number of conditional branches predicted
system.cpu1.branchPred.indirectHits                 0                       # Number of indirect target hits.
system.cpu1.branchPred.indirectLookups             24                       # Number of indirect predictor lookups.
system.cpu1.branchPred.indirectMisses              24                       # Number of indirect misses.
system.cpu1.branchPred.lookups                     76                       # Number of BP lookups
system.cpu1.branchPred.usedRAS                      0                       # Number of times the RAS was used to get a target.
system.cpu1.branchPredindirectMispredicted           15                       # Number of mispredicted indirect branches.
system.cpu1.committedInsts                    4311839                       # Number of instructions committed
system.cpu1.committedOps                      8154775                       # Number of ops (including micro ops) committed
system.cpu1.cpi                              6.759996                       # CPI: cycles per instruction
system.cpu1.discardedOps                      1520660                       # Number of ops (including micro ops) which were discarded before commit
system.cpu1.dtb.rdAccesses                    1093386                       # TLB accesses on read requests
system.cpu1.dtb.rdMisses                        15329                       # TLB misses on read requests
system.cpu1.dtb.wrAccesses                     791227                       # TLB accesses on write requests
system.cpu1.dtb.wrMisses                          570                       # TLB misses on write requests
system.cpu1.fetch2.amo_instructions                 0                       # Number of memory atomic instructions successfully decoded
system.cpu1.fetch2.fp_instructions                  0                       # Number of floating point instructions successfully decoded
system.cpu1.fetch2.int_instructions                 8                       # Number of integer instructions successfully decoded
system.cpu1.fetch2.load_instructions                0                       # Number of memory load instructions successfully decoded
system.cpu1.fetch2.store_instructions               0                       # Number of memory store instructions successfully decoded
system.cpu1.fetch2.vec_instructions                 0                       # Number of SIMD instructions successfully decoded
system.cpu1.idleCycles                       15047844                       # Total number of cycles that the object has spent stopped
system.cpu1.ipc                              0.147929                       # IPC: instructions per cycle
system.cpu1.itb.rdAccesses                          0                       # TLB accesses on read requests
system.cpu1.itb.rdMisses                            0                       # TLB misses on read requests
system.cpu1.itb.wrAccesses                    1460530                       # TLB accesses on write requests
system.cpu1.itb.wrMisses                          209                       # TLB misses on write requests
system.cpu1.numCycles                        29148013                       # number of cpu cycles simulated
system.cpu1.numFetchSuspends                        0                       # Number of times Execute suspended instruction fetching
system.cpu1.numWorkItemsCompleted                   0                       # number of work items this cpu completed
system.cpu1.numWorkItemsStarted                     0                       # number of work items this cpu started
system.cpu1.op_class_0::No_OpClass              17846      0.22%      0.22% # Class of committed instruction
system.cpu1.op_class_0::IntAlu                6386949     78.32%     78.54% # Class of committed instruction
system.cpu1.op_class_0::IntMult                 15963      0.20%     78.74% # Class of committed instruction
system.cpu1.op_class_0::IntDiv                   1365      0.02%     78.75% # Class of committed instruction
system.cpu1.op_class_0::FloatAdd                10881      0.13%     78.89% # Class of committed instruction
system.cpu1.op_class_0::FloatCmp                    0      0.00%     78.89% # Class of committed instruction
system.cpu1.op_class_0::FloatCvt                  160      0.00%     78.89% # Class of committed instruction
system.cpu1.op_class_0::FloatMult                   0      0.00%     78.89% # Class of committed instruction
system.cpu1.op_class_0::FloatMultAcc                0      0.00%     78.89% # Class of committed instruction
system.cpu1.op_class_0::FloatDiv                    0      0.00%     78.89% # Class of committed instruction
system.cpu1.op_class_0::FloatMisc                   0      0.00%     78.89% # Class of committed instruction
system.cpu1.op_class_0::FloatSqrt                   0      0.00%     78.89% # Class of committed instruction
system.cpu1.op_class_0::SimdAdd                   946      0.01%     78.90% # Class of committed instruction
system.cpu1.op_class_0::SimdAddAcc                  0      0.00%     78.90% # Class of committed instruction
system.cpu1.op_class_0::SimdAlu                  1027      0.01%     78.91% # Class of committed instruction
system.cpu1.op_class_0::SimdCmp                    12      0.00%     78.91% # Class of committed instruction
system.cpu1.op_class_0::SimdCvt                 12634      0.15%     79.07% # Class of committed instruction
system.cpu1.op_class_0::SimdMisc                49426      0.61%     79.67% # Class of committed instruction
system.cpu1.op_class_0::SimdMult                    0      0.00%     79.67% # Class of committed instruction
system.cpu1.op_class_0::SimdMultAcc                 0      0.00%     79.67% # Class of committed instruction
system.cpu1.op_class_0::SimdShift                 446      0.01%     79.68% # Class of committed instruction
system.cpu1.op_class_0::SimdShiftAcc                0      0.00%     79.68% # Class of committed instruction
system.cpu1.op_class_0::SimdDiv                     0      0.00%     79.68% # Class of committed instruction
system.cpu1.op_class_0::SimdSqrt                    0      0.00%     79.68% # Class of committed instruction
system.cpu1.op_class_0::SimdFloatAdd                0      0.00%     79.68% # Class of committed instruction
system.cpu1.op_class_0::SimdFloatAlu                0      0.00%     79.68% # Class of committed instruction
system.cpu1.op_class_0::SimdFloatCmp                0      0.00%     79.68% # Class of committed instruction
system.cpu1.op_class_0::SimdFloatCvt                0      0.00%     79.68% # Class of committed instruction
system.cpu1.op_class_0::SimdFloatDiv                0      0.00%     79.68% # Class of committed instruction
system.cpu1.op_class_0::SimdFloatMisc               0      0.00%     79.68% # Class of committed instruction
system.cpu1.op_class_0::SimdFloatMult               0      0.00%     79.68% # Class of committed instruction
system.cpu1.op_class_0::SimdFloatMultAcc            0      0.00%     79.68% # Class of committed instruction
system.cpu1.op_class_0::SimdFloatSqrt               0      0.00%     79.68% # Class of committed instruction
system.cpu1.op_class_0::SimdReduceAdd               0      0.00%     79.68% # Class of committed instruction
system.cpu1.op_class_0::SimdReduceAlu               0      0.00%     79.68% # Class of committed instruction
system.cpu1.op_class_0::SimdReduceCmp               0      0.00%     79.68% # Class of committed instruction
system.cpu1.op_class_0::SimdFloatReduceAdd            0      0.00%     79.68% # Class of committed instruction
system.cpu1.op_class_0::SimdFloatReduceCmp            0      0.00%     79.68% # Class of committed instruction
system.cpu1.op_class_0::SimdAes                     0      0.00%     79.68% # Class of committed instruction
system.cpu1.op_class_0::SimdAesMix                  0      0.00%     79.68% # Class of committed instruction
system.cpu1.op_class_0::SimdSha1Hash                0      0.00%     79.68% # Class of committed instruction
system.cpu1.op_class_0::SimdSha1Hash2               0      0.00%     79.68% # Class of committed instruction
system.cpu1.op_class_0::SimdSha256Hash              0      0.00%     79.68% # Class of committed instruction
system.cpu1.op_class_0::SimdSha256Hash2             0      0.00%     79.68% # Class of committed instruction
system.cpu1.op_class_0::SimdShaSigma2               0      0.00%     79.68% # Class of committed instruction
system.cpu1.op_class_0::SimdShaSigma3               0      0.00%     79.68% # Class of committed instruction
system.cpu1.op_class_0::SimdPredAlu                 0      0.00%     79.68% # Class of committed instruction
system.cpu1.op_class_0::MemRead                893151     10.95%     90.63% # Class of committed instruction
system.cpu1.op_class_0::MemWrite               717531      8.80%     99.43% # Class of committed instruction
system.cpu1.op_class_0::FloatMemRead            29152      0.36%     99.79% # Class of committed instruction
system.cpu1.op_class_0::FloatMemWrite           17286      0.21%    100.00% # Class of committed instruction
system.cpu1.op_class_0::IprAccess                   0      0.00%    100.00% # Class of committed instruction
system.cpu1.op_class_0::InstPrefetch                0      0.00%    100.00% # Class of committed instruction
system.cpu1.op_class_0::total                 8154775                       # Class of committed instruction
system.cpu1.tickCycles                       14100169                       # Number of cycles that the object actually ticked
system.cpu1.workload.numSyscalls                   35                       # Number of system calls
system.membus.snoop_filter.hit_multi_requests            0                       # Number of requests hitting in the snoop filter with multiple (>1) holders of the requested data.
system.membus.snoop_filter.hit_multi_snoops            0                       # Number of snoops hitting in the snoop filter with multiple (>1) holders of the requested data.
system.membus.snoop_filter.hit_single_requests        47466                       # Number of requests hitting in the snoop filter with a single holder of the requested data.
system.membus.snoop_filter.hit_single_snoops            0                       # Number of snoops hitting in the snoop filter with a single holder of the requested data.
system.membus.snoop_filter.tot_requests         95956                       # Total number of requests made to the snoop filter.
system.membus.snoop_filter.tot_snoops               0                       # Total number of snoops made to the snoop filter.
system.tol2bus.snoop_filter.hit_multi_requests            1                       # Number of requests hitting in the snoop filter with multiple (>1) holders of the requested data.
system.tol2bus.snoop_filter.hit_multi_snoops            0                       # Number of snoops hitting in the snoop filter with multiple (>1) holders of the requested data.
system.tol2bus.snoop_filter.hit_single_requests      1226958                       # Number of requests hitting in the snoop filter with a single holder of the requested data.
system.tol2bus.snoop_filter.hit_single_snoops         6329                       # Number of snoops hitting in the snoop filter with a single holder of the requested data.
system.tol2bus.snoop_filter.tot_requests      2453981                       # Total number of requests made to the snoop filter.
system.tol2bus.snoop_filter.tot_snoops           6329                       # Total number of snoops made to the snoop filter.
system.membus.trans_dist::ReadResp              24087                       # Transaction distribution
system.membus.trans_dist::WritebackDirty        26387                       # Transaction distribution
system.membus.trans_dist::CleanEvict            21079                       # Transaction distribution
system.membus.trans_dist::ReadExReq             24403                       # Transaction distribution
system.membus.trans_dist::ReadExResp            24403                       # Transaction distribution
system.membus.trans_dist::ReadSharedReq         24087                       # Transaction distribution
system.membus.pkt_count_system.l2.mem_side::system.mem_ctrls.port       144446                       # Packet count per connected master and slave (bytes)
system.membus.pkt_count_system.l2.mem_side::total       144446                       # Packet count per connected master and slave (bytes)
system.membus.pkt_count::total                 144446                       # Packet count per connected master and slave (bytes)
system.membus.pkt_size_system.l2.mem_side::system.mem_ctrls.port      4792128                       # Cumulative packet size per connected master and slave (bytes)
system.membus.pkt_size_system.l2.mem_side::total      4792128                       # Cumulative packet size per connected master and slave (bytes)
system.membus.pkt_size::total                 4792128                       # Cumulative packet size per connected master and slave (bytes)
system.membus.snoops                                0                       # Total snoops (count)
system.membus.snoopTraffic                          0                       # Total snoop traffic (bytes)
system.membus.snoop_fanout::samples             48490                       # Request fanout histogram
system.membus.snoop_fanout::mean                    0                       # Request fanout histogram
system.membus.snoop_fanout::stdev                   0                       # Request fanout histogram
system.membus.snoop_fanout::underflows              0      0.00%      0.00% # Request fanout histogram
system.membus.snoop_fanout::0                   48490    100.00%    100.00% # Request fanout histogram
system.membus.snoop_fanout::1                       0      0.00%    100.00% # Request fanout histogram
system.membus.snoop_fanout::overflows               0      0.00%    100.00% # Request fanout histogram
system.membus.snoop_fanout::min_value               0                       # Request fanout histogram
system.membus.snoop_fanout::max_value               0                       # Request fanout histogram
system.membus.snoop_fanout::total               48490                       # Request fanout histogram
system.membus.reqLayer4.occupancy           213403000                       # Layer occupancy (ticks)
system.membus.reqLayer4.utilization               1.5                       # Layer utilization (%)
system.membus.respLayer1.occupancy          258007500                       # Layer occupancy (ticks)
system.membus.respLayer1.utilization              1.8                       # Layer utilization (%)
system.membus.power_state.pwrStateResidencyTicks::UNDEFINED  14574006500                       # Cumulative time (in ticks) in various power states
system.voltage_domain.voltage                       1                       # Voltage in Volts
system.clk_domain.clock                          1000                       # Clock period in ticks
system.cpu0.icache.demand_hits::.cpu0.inst      2429303                       # number of demand (read+write) hits
system.cpu0.icache.demand_hits::total         2429303                       # number of demand (read+write) hits
system.cpu0.icache.overall_hits::.cpu0.inst      2429303                       # number of overall hits
system.cpu0.icache.overall_hits::total        2429303                       # number of overall hits
system.cpu0.icache.demand_misses::.cpu0.inst        13723                       # number of demand (read+write) misses
system.cpu0.icache.demand_misses::total         13723                       # number of demand (read+write) misses
system.cpu0.icache.overall_misses::.cpu0.inst        13723                       # number of overall misses
system.cpu0.icache.overall_misses::total        13723                       # number of overall misses
system.cpu0.icache.demand_miss_latency::.cpu0.inst    516063000                       # number of demand (read+write) miss cycles
system.cpu0.icache.demand_miss_latency::total    516063000                       # number of demand (read+write) miss cycles
system.cpu0.icache.overall_miss_latency::.cpu0.inst    516063000                       # number of overall miss cycles
system.cpu0.icache.overall_miss_latency::total    516063000                       # number of overall miss cycles
system.cpu0.icache.demand_accesses::.cpu0.inst      2443026                       # number of demand (read+write) accesses
system.cpu0.icache.demand_accesses::total      2443026                       # number of demand (read+write) accesses
system.cpu0.icache.overall_accesses::.cpu0.inst      2443026                       # number of overall (read+write) accesses
system.cpu0.icache.overall_accesses::total      2443026                       # number of overall (read+write) accesses
system.cpu0.icache.demand_miss_rate::.cpu0.inst     0.005617                       # miss rate for demand accesses
system.cpu0.icache.demand_miss_rate::total     0.005617                       # miss rate for demand accesses
system.cpu0.icache.overall_miss_rate::.cpu0.inst     0.005617                       # miss rate for overall accesses
system.cpu0.icache.overall_miss_rate::total     0.005617                       # miss rate for overall accesses
system.cpu0.icache.demand_avg_miss_latency::.cpu0.inst 37605.698462                       # average overall miss latency
system.cpu0.icache.demand_avg_miss_latency::total 37605.698462                       # average overall miss latency
system.cpu0.icache.overall_avg_miss_latency::.cpu0.inst 37605.698462                       # average overall miss latency
system.cpu0.icache.overall_avg_miss_latency::total 37605.698462                       # average overall miss latency
system.cpu0.icache.blocked_cycles::no_mshrs            0                       # number of cycles access was blocked
system.cpu0.icache.blocked_cycles::no_targets            0                       # number of cycles access was blocked
system.cpu0.icache.blocked::no_mshrs                0                       # number of cycles access was blocked
system.cpu0.icache.blocked::no_targets              0                       # number of cycles access was blocked
system.cpu0.icache.avg_blocked_cycles::no_mshrs          nan                       # average number of cycles each access was blocked
system.cpu0.icache.avg_blocked_cycles::no_targets          nan                       # average number of cycles each access was blocked
system.cpu0.icache.writebacks::.writebacks        13707                       # number of writebacks
system.cpu0.icache.writebacks::total            13707                       # number of writebacks
system.cpu0.icache.demand_mshr_misses::.cpu0.inst        13723                       # number of demand (read+write) MSHR misses
system.cpu0.icache.demand_mshr_misses::total        13723                       # number of demand (read+write) MSHR misses
system.cpu0.icache.overall_mshr_misses::.cpu0.inst        13723                       # number of overall MSHR misses
system.cpu0.icache.overall_mshr_misses::total        13723                       # number of overall MSHR misses
system.cpu0.icache.demand_mshr_miss_latency::.cpu0.inst    502340000                       # number of demand (read+write) MSHR miss cycles
system.cpu0.icache.demand_mshr_miss_latency::total    502340000                       # number of demand (read+write) MSHR miss cycles
system.cpu0.icache.overall_mshr_miss_latency::.cpu0.inst    502340000                       # number of overall MSHR miss cycles
system.cpu0.icache.overall_mshr_miss_latency::total    502340000                       # number of overall MSHR miss cycles
system.cpu0.icache.demand_mshr_miss_rate::.cpu0.inst     0.005617                       # mshr miss rate for demand accesses
system.cpu0.icache.demand_mshr_miss_rate::total     0.005617                       # mshr miss rate for demand accesses
system.cpu0.icache.overall_mshr_miss_rate::.cpu0.inst     0.005617                       # mshr miss rate for overall accesses
system.cpu0.icache.overall_mshr_miss_rate::total     0.005617                       # mshr miss rate for overall accesses
system.cpu0.icache.demand_avg_mshr_miss_latency::.cpu0.inst 36605.698462                       # average overall mshr miss latency
system.cpu0.icache.demand_avg_mshr_miss_latency::total 36605.698462                       # average overall mshr miss latency
system.cpu0.icache.overall_avg_mshr_miss_latency::.cpu0.inst 36605.698462                       # average overall mshr miss latency
system.cpu0.icache.overall_avg_mshr_miss_latency::total 36605.698462                       # average overall mshr miss latency
system.cpu0.icache.replacements                 13707                       # number of replacements
system.cpu0.icache.ReadReq_hits::.cpu0.inst      2429303                       # number of ReadReq hits
system.cpu0.icache.ReadReq_hits::total        2429303                       # number of ReadReq hits
system.cpu0.icache.ReadReq_misses::.cpu0.inst        13723                       # number of ReadReq misses
system.cpu0.icache.ReadReq_misses::total        13723                       # number of ReadReq misses
system.cpu0.icache.ReadReq_miss_latency::.cpu0.inst    516063000                       # number of ReadReq miss cycles
system.cpu0.icache.ReadReq_miss_latency::total    516063000                       # number of ReadReq miss cycles
system.cpu0.icache.ReadReq_accesses::.cpu0.inst      2443026                       # number of ReadReq accesses(hits+misses)
system.cpu0.icache.ReadReq_accesses::total      2443026                       # number of ReadReq accesses(hits+misses)
system.cpu0.icache.ReadReq_miss_rate::.cpu0.inst     0.005617                       # miss rate for ReadReq accesses
system.cpu0.icache.ReadReq_miss_rate::total     0.005617                       # miss rate for ReadReq accesses
system.cpu0.icache.ReadReq_avg_miss_latency::.cpu0.inst 37605.698462                       # average ReadReq miss latency
system.cpu0.icache.ReadReq_avg_miss_latency::total 37605.698462                       # average ReadReq miss latency
system.cpu0.icache.ReadReq_mshr_misses::.cpu0.inst        13723                       # number of ReadReq MSHR misses
system.cpu0.icache.ReadReq_mshr_misses::total        13723                       # number of ReadReq MSHR misses
system.cpu0.icache.ReadReq_mshr_miss_latency::.cpu0.inst    502340000                       # number of ReadReq MSHR miss cycles
system.cpu0.icache.ReadReq_mshr_miss_latency::total    502340000                       # number of ReadReq MSHR miss cycles
system.cpu0.icache.ReadReq_mshr_miss_rate::.cpu0.inst     0.005617                       # mshr miss rate for ReadReq accesses
system.cpu0.icache.ReadReq_mshr_miss_rate::total     0.005617                       # mshr miss rate for ReadReq accesses
system.cpu0.icache.ReadReq_avg_mshr_miss_latency::.cpu0.inst 36605.698462                       # average ReadReq mshr miss latency
system.cpu0.icache.ReadReq_avg_mshr_miss_latency::total 36605.698462                       # average ReadReq mshr miss latency
system.cpu0.icache.power_state.pwrStateResidencyTicks::UNDEFINED  14574006500                       # Cumulative time (in ticks) in various power states
system.cpu0.icache.tags.tagsinuse           15.999070                       # Cycle average of tags in use
system.cpu0.icache.tags.total_refs            2443026                       # Total number of references to valid blocks.
system.cpu0.icache.tags.sampled_refs            13723                       # Sample count of references to valid blocks.
system.cpu0.icache.tags.avg_refs           178.024193                       # Average number of references to valid blocks.
system.cpu0.icache.tags.warmup_cycle            87500                       # Cycle when the warmup percentage was hit.
system.cpu0.icache.tags.occ_blocks::.cpu0.inst    15.999070                       # Average occupied blocks per requestor
system.cpu0.icache.tags.occ_percent::.cpu0.inst     0.999942                       # Average percentage of cache occupancy
system.cpu0.icache.tags.occ_percent::total     0.999942                       # Average percentage of cache occupancy
system.cpu0.icache.tags.occ_task_id_blocks::1024           16                       # Occupied blocks per task id
system.cpu0.icache.tags.age_task_id_blocks_1024::1           16                       # Occupied blocks per task id
system.cpu0.icache.tags.occ_task_id_percent::1024            1                       # Percentage of cache occupancy per task id
system.cpu0.icache.tags.tag_accesses         19557931                       # Number of tag accesses
system.cpu0.icache.tags.data_accesses        19557931                       # Number of data accesses
system.cpu0.icache.tags.power_state.pwrStateResidencyTicks::UNDEFINED  14574006500                       # Cumulative time (in ticks) in various power states
system.cpu0.dtb.walker.power_state.pwrStateResidencyTicks::UNDEFINED  14574006500                       # Cumulative time (in ticks) in various power states
system.cpu0.interrupts.clk_domain.clock          8000                       # Clock period in ticks
system.cpu0.itb_walker_cache.blocked_cycles::no_mshrs            0                       # number of cycles access was blocked
system.cpu0.itb_walker_cache.blocked_cycles::no_targets            0                       # number of cycles access was blocked
system.cpu0.itb_walker_cache.blocked::no_mshrs            0                       # number of cycles access was blocked
system.cpu0.itb_walker_cache.blocked::no_targets            0                       # number of cycles access was blocked
system.cpu0.itb_walker_cache.avg_blocked_cycles::no_mshrs          nan                       # average number of cycles each access was blocked
system.cpu0.itb_walker_cache.avg_blocked_cycles::no_targets          nan                       # average number of cycles each access was blocked
system.cpu0.itb_walker_cache.replacements            0                       # number of replacements
system.cpu0.itb_walker_cache.power_state.pwrStateResidencyTicks::UNDEFINED  14574006500                       # Cumulative time (in ticks) in various power states
system.cpu0.itb_walker_cache.tags.tagsinuse            0                       # Cycle average of tags in use
system.cpu0.itb_walker_cache.tags.total_refs            0                       # Total number of references to valid blocks.
system.cpu0.itb_walker_cache.tags.sampled_refs            0                       # Sample count of references to valid blocks.
system.cpu0.itb_walker_cache.tags.avg_refs          nan                       # Average number of references to valid blocks.
system.cpu0.itb_walker_cache.tags.warmup_cycle            0                       # Cycle when the warmup percentage was hit.
system.cpu0.itb_walker_cache.tags.tag_accesses            0                       # Number of tag accesses
system.cpu0.itb_walker_cache.tags.data_accesses            0                       # Number of data accesses
system.cpu0.itb_walker_cache.tags.power_state.pwrStateResidencyTicks::UNDEFINED  14574006500                       # Cumulative time (in ticks) in various power states
system.cpu0.dtb_walker_cache.blocked_cycles::no_mshrs            0                       # number of cycles access was blocked
system.cpu0.dtb_walker_cache.blocked_cycles::no_targets            0                       # number of cycles access was blocked
system.cpu0.dtb_walker_cache.blocked::no_mshrs            0                       # number of cycles access was blocked
system.cpu0.dtb_walker_cache.blocked::no_targets            0                       # number of cycles access was blocked
system.cpu0.dtb_walker_cache.avg_blocked_cycles::no_mshrs          nan                       # average number of cycles each access was blocked
system.cpu0.dtb_walker_cache.avg_blocked_cycles::no_targets          nan                       # average number of cycles each access was blocked
system.cpu0.dtb_walker_cache.replacements            0                       # number of replacements
system.cpu0.dtb_walker_cache.power_state.pwrStateResidencyTicks::UNDEFINED  14574006500                       # Cumulative time (in ticks) in various power states
system.cpu0.dtb_walker_cache.tags.tagsinuse            0                       # Cycle average of tags in use
system.cpu0.dtb_walker_cache.tags.total_refs            0                       # Total number of references to valid blocks.
system.cpu0.dtb_walker_cache.tags.sampled_refs            0                       # Sample count of references to valid blocks.
system.cpu0.dtb_walker_cache.tags.avg_refs          nan                       # Average number of references to valid blocks.
system.cpu0.dtb_walker_cache.tags.warmup_cycle            0                       # Cycle when the warmup percentage was hit.
system.cpu0.dtb_walker_cache.tags.tag_accesses            0                       # Number of tag accesses
system.cpu0.dtb_walker_cache.tags.data_accesses            0                       # Number of data accesses
system.cpu0.dtb_walker_cache.tags.power_state.pwrStateResidencyTicks::UNDEFINED  14574006500                       # Cumulative time (in ticks) in various power states
system.cpu0.dcache.demand_hits::.cpu0.data      5861515                       # number of demand (read+write) hits
system.cpu0.dcache.demand_hits::total         5861515                       # number of demand (read+write) hits
system.cpu0.dcache.overall_hits::.cpu0.data      5863263                       # number of overall hits
system.cpu0.dcache.overall_hits::total        5863263                       # number of overall hits
system.cpu0.dcache.demand_misses::.cpu0.data       226412                       # number of demand (read+write) misses
system.cpu0.dcache.demand_misses::total        226412                       # number of demand (read+write) misses
system.cpu0.dcache.overall_misses::.cpu0.data       232055                       # number of overall misses
system.cpu0.dcache.overall_misses::total       232055                       # number of overall misses
system.cpu0.dcache.demand_miss_latency::.cpu0.data   4606068995                       # number of demand (read+write) miss cycles
system.cpu0.dcache.demand_miss_latency::total   4606068995                       # number of demand (read+write) miss cycles
system.cpu0.dcache.overall_miss_latency::.cpu0.data   4606068995                       # number of overall miss cycles
system.cpu0.dcache.overall_miss_latency::total   4606068995                       # number of overall miss cycles
system.cpu0.dcache.demand_accesses::.cpu0.data      6087927                       # number of demand (read+write) accesses
system.cpu0.dcache.demand_accesses::total      6087927                       # number of demand (read+write) accesses
system.cpu0.dcache.overall_accesses::.cpu0.data      6095318                       # number of overall (read+write) accesses
system.cpu0.dcache.overall_accesses::total      6095318                       # number of overall (read+write) accesses
system.cpu0.dcache.demand_miss_rate::.cpu0.data     0.037190                       # miss rate for demand accesses
system.cpu0.dcache.demand_miss_rate::total     0.037190                       # miss rate for demand accesses
system.cpu0.dcache.overall_miss_rate::.cpu0.data     0.038071                       # miss rate for overall accesses
system.cpu0.dcache.overall_miss_rate::total     0.038071                       # miss rate for overall accesses
system.cpu0.dcache.demand_avg_miss_latency::.cpu0.data 20343.749426                       # average overall miss latency
system.cpu0.dcache.demand_avg_miss_latency::total 20343.749426                       # average overall miss latency
system.cpu0.dcache.overall_avg_miss_latency::.cpu0.data 19849.040077                       # average overall miss latency
system.cpu0.dcache.overall_avg_miss_latency::total 19849.040077                       # average overall miss latency
system.cpu0.dcache.blocked_cycles::no_mshrs         1646                       # number of cycles access was blocked
system.cpu0.dcache.blocked_cycles::no_targets            0                       # number of cycles access was blocked
system.cpu0.dcache.blocked::no_mshrs               24                       # number of cycles access was blocked
system.cpu0.dcache.blocked::no_targets              0                       # number of cycles access was blocked
system.cpu0.dcache.avg_blocked_cycles::no_mshrs    68.583333                       # average number of cycles each access was blocked
system.cpu0.dcache.avg_blocked_cycles::no_targets          nan                       # average number of cycles each access was blocked
system.cpu0.dcache.writebacks::.writebacks        59429                       # number of writebacks
system.cpu0.dcache.writebacks::total            59429                       # number of writebacks
system.cpu0.dcache.demand_mshr_hits::.cpu0.data         8801                       # number of demand (read+write) MSHR hits
system.cpu0.dcache.demand_mshr_hits::total         8801                       # number of demand (read+write) MSHR hits
system.cpu0.dcache.overall_mshr_hits::.cpu0.data         8801                       # number of overall MSHR hits
system.cpu0.dcache.overall_mshr_hits::total         8801                       # number of overall MSHR hits
system.cpu0.dcache.demand_mshr_misses::.cpu0.data       217611                       # number of demand (read+write) MSHR misses
system.cpu0.dcache.demand_mshr_misses::total       217611                       # number of demand (read+write) MSHR misses
system.cpu0.dcache.overall_mshr_misses::.cpu0.data       221354                       # number of overall MSHR misses
system.cpu0.dcache.overall_mshr_misses::total       221354                       # number of overall MSHR misses
system.cpu0.dcache.demand_mshr_miss_latency::.cpu0.data   4060635000                       # number of demand (read+write) MSHR miss cycles
system.cpu0.dcache.demand_mshr_miss_latency::total   4060635000                       # number of demand (read+write) MSHR miss cycles
system.cpu0.dcache.overall_mshr_miss_latency::.cpu0.data   4370287500                       # number of overall MSHR miss cycles
system.cpu0.dcache.overall_mshr_miss_latency::total   4370287500                       # number of overall MSHR miss cycles
system.cpu0.dcache.demand_mshr_miss_rate::.cpu0.data     0.035745                       # mshr miss rate for demand accesses
system.cpu0.dcache.demand_mshr_miss_rate::total     0.035745                       # mshr miss rate for demand accesses
system.cpu0.dcache.overall_mshr_miss_rate::.cpu0.data     0.036315                       # mshr miss rate for overall accesses
system.cpu0.dcache.overall_mshr_miss_rate::total     0.036315                       # mshr miss rate for overall accesses
system.cpu0.dcache.demand_avg_mshr_miss_latency::.cpu0.data 18660.063140                       # average overall mshr miss latency
system.cpu0.dcache.demand_avg_mshr_miss_latency::total 18660.063140                       # average overall mshr miss latency
system.cpu0.dcache.overall_avg_mshr_miss_latency::.cpu0.data 19743.431336                       # average overall mshr miss latency
system.cpu0.dcache.overall_avg_mshr_miss_latency::total 19743.431336                       # average overall mshr miss latency
system.cpu0.dcache.replacements                221338                       # number of replacements
system.cpu0.dcache.ReadReq_hits::.cpu0.data      3983206                       # number of ReadReq hits
system.cpu0.dcache.ReadReq_hits::total        3983206                       # number of ReadReq hits
system.cpu0.dcache.ReadReq_misses::.cpu0.data       163032                       # number of ReadReq misses
system.cpu0.dcache.ReadReq_misses::total       163032                       # number of ReadReq misses
system.cpu0.dcache.ReadReq_miss_latency::.cpu0.data   2782245000                       # number of ReadReq miss cycles
system.cpu0.dcache.ReadReq_miss_latency::total   2782245000                       # number of ReadReq miss cycles
system.cpu0.dcache.ReadReq_accesses::.cpu0.data      4146238                       # number of ReadReq accesses(hits+misses)
system.cpu0.dcache.ReadReq_accesses::total      4146238                       # number of ReadReq accesses(hits+misses)
system.cpu0.dcache.ReadReq_miss_rate::.cpu0.data     0.039320                       # miss rate for ReadReq accesses
system.cpu0.dcache.ReadReq_miss_rate::total     0.039320                       # miss rate for ReadReq accesses
system.cpu0.dcache.ReadReq_avg_miss_latency::.cpu0.data 17065.637421                       # average ReadReq miss latency
system.cpu0.dcache.ReadReq_avg_miss_latency::total 17065.637421                       # average ReadReq miss latency
system.cpu0.dcache.ReadReq_mshr_hits::.cpu0.data          427                       # number of ReadReq MSHR hits
system.cpu0.dcache.ReadReq_mshr_hits::total          427                       # number of ReadReq MSHR hits
system.cpu0.dcache.ReadReq_mshr_misses::.cpu0.data       162605                       # number of ReadReq MSHR misses
system.cpu0.dcache.ReadReq_mshr_misses::total       162605                       # number of ReadReq MSHR misses
system.cpu0.dcache.ReadReq_mshr_miss_latency::.cpu0.data   2596146500                       # number of ReadReq MSHR miss cycles
system.cpu0.dcache.ReadReq_mshr_miss_latency::total   2596146500                       # number of ReadReq MSHR miss cycles
system.cpu0.dcache.ReadReq_mshr_miss_rate::.cpu0.data     0.039217                       # mshr miss rate for ReadReq accesses
system.cpu0.dcache.ReadReq_mshr_miss_rate::total     0.039217                       # mshr miss rate for ReadReq accesses
system.cpu0.dcache.ReadReq_avg_mshr_miss_latency::.cpu0.data 15965.969681                       # average ReadReq mshr miss latency
system.cpu0.dcache.ReadReq_avg_mshr_miss_latency::total 15965.969681                       # average ReadReq mshr miss latency
system.cpu0.dcache.WriteReq_hits::.cpu0.data      1878309                       # number of WriteReq hits
system.cpu0.dcache.WriteReq_hits::total       1878309                       # number of WriteReq hits
system.cpu0.dcache.WriteReq_misses::.cpu0.data        63380                       # number of WriteReq misses
system.cpu0.dcache.WriteReq_misses::total        63380                       # number of WriteReq misses
system.cpu0.dcache.WriteReq_miss_latency::.cpu0.data   1823823995                       # number of WriteReq miss cycles
system.cpu0.dcache.WriteReq_miss_latency::total   1823823995                       # number of WriteReq miss cycles
system.cpu0.dcache.WriteReq_accesses::.cpu0.data      1941689                       # number of WriteReq accesses(hits+misses)
system.cpu0.dcache.WriteReq_accesses::total      1941689                       # number of WriteReq accesses(hits+misses)
system.cpu0.dcache.WriteReq_miss_rate::.cpu0.data     0.032642                       # miss rate for WriteReq accesses
system.cpu0.dcache.WriteReq_miss_rate::total     0.032642                       # miss rate for WriteReq accesses
system.cpu0.dcache.WriteReq_avg_miss_latency::.cpu0.data 28776.017592                       # average WriteReq miss latency
system.cpu0.dcache.WriteReq_avg_miss_latency::total 28776.017592                       # average WriteReq miss latency
system.cpu0.dcache.WriteReq_mshr_hits::.cpu0.data         8374                       # number of WriteReq MSHR hits
system.cpu0.dcache.WriteReq_mshr_hits::total         8374                       # number of WriteReq MSHR hits
system.cpu0.dcache.WriteReq_mshr_misses::.cpu0.data        55006                       # number of WriteReq MSHR misses
system.cpu0.dcache.WriteReq_mshr_misses::total        55006                       # number of WriteReq MSHR misses
system.cpu0.dcache.WriteReq_mshr_miss_latency::.cpu0.data   1464488500                       # number of WriteReq MSHR miss cycles
system.cpu0.dcache.WriteReq_mshr_miss_latency::total   1464488500                       # number of WriteReq MSHR miss cycles
system.cpu0.dcache.WriteReq_mshr_miss_rate::.cpu0.data     0.028329                       # mshr miss rate for WriteReq accesses
system.cpu0.dcache.WriteReq_mshr_miss_rate::total     0.028329                       # mshr miss rate for WriteReq accesses
system.cpu0.dcache.WriteReq_avg_mshr_miss_latency::.cpu0.data 26624.159183                       # average WriteReq mshr miss latency
system.cpu0.dcache.WriteReq_avg_mshr_miss_latency::total 26624.159183                       # average WriteReq mshr miss latency
system.cpu0.dcache.SoftPFReq_hits::.cpu0.data         1748                       # number of SoftPFReq hits
system.cpu0.dcache.SoftPFReq_hits::total         1748                       # number of SoftPFReq hits
system.cpu0.dcache.SoftPFReq_misses::.cpu0.data         5643                       # number of SoftPFReq misses
system.cpu0.dcache.SoftPFReq_misses::total         5643                       # number of SoftPFReq misses
system.cpu0.dcache.SoftPFReq_accesses::.cpu0.data         7391                       # number of SoftPFReq accesses(hits+misses)
system.cpu0.dcache.SoftPFReq_accesses::total         7391                       # number of SoftPFReq accesses(hits+misses)
system.cpu0.dcache.SoftPFReq_miss_rate::.cpu0.data     0.763496                       # miss rate for SoftPFReq accesses
system.cpu0.dcache.SoftPFReq_miss_rate::total     0.763496                       # miss rate for SoftPFReq accesses
system.cpu0.dcache.SoftPFReq_mshr_misses::.cpu0.data         3743                       # number of SoftPFReq MSHR misses
system.cpu0.dcache.SoftPFReq_mshr_misses::total         3743                       # number of SoftPFReq MSHR misses
system.cpu0.dcache.SoftPFReq_mshr_miss_latency::.cpu0.data    309652500                       # number of SoftPFReq MSHR miss cycles
system.cpu0.dcache.SoftPFReq_mshr_miss_latency::total    309652500                       # number of SoftPFReq MSHR miss cycles
system.cpu0.dcache.SoftPFReq_mshr_miss_rate::.cpu0.data     0.506427                       # mshr miss rate for SoftPFReq accesses
system.cpu0.dcache.SoftPFReq_mshr_miss_rate::total     0.506427                       # mshr miss rate for SoftPFReq accesses
system.cpu0.dcache.SoftPFReq_avg_mshr_miss_latency::.cpu0.data 82728.426396                       # average SoftPFReq mshr miss latency
system.cpu0.dcache.SoftPFReq_avg_mshr_miss_latency::total 82728.426396                       # average SoftPFReq mshr miss latency
system.cpu0.dcache.power_state.pwrStateResidencyTicks::UNDEFINED  14574006500                       # Cumulative time (in ticks) in various power states
system.cpu0.dcache.tags.tagsinuse           15.998989                       # Cycle average of tags in use
system.cpu0.dcache.tags.total_refs            6084617                       # Total number of references to valid blocks.
system.cpu0.dcache.tags.sampled_refs           221354                       # Sample count of references to valid blocks.
system.cpu0.dcache.tags.avg_refs            27.488173                       # Average number of references to valid blocks.
system.cpu0.dcache.tags.warmup_cycle           178500                       # Cycle when the warmup percentage was hit.
system.cpu0.dcache.tags.occ_blocks::.cpu0.data    15.998989                       # Average occupied blocks per requestor
system.cpu0.dcache.tags.occ_percent::.cpu0.data     0.999937                       # Average percentage of cache occupancy
system.cpu0.dcache.tags.occ_percent::total     0.999937                       # Average percentage of cache occupancy
system.cpu0.dcache.tags.occ_task_id_blocks::1024           16                       # Occupied blocks per task id
system.cpu0.dcache.tags.age_task_id_blocks_1024::0           12                       # Occupied blocks per task id
system.cpu0.dcache.tags.age_task_id_blocks_1024::1            4                       # Occupied blocks per task id
system.cpu0.dcache.tags.occ_task_id_percent::1024            1                       # Percentage of cache occupancy per task id
system.cpu0.dcache.tags.tag_accesses         48983898                       # Number of tag accesses
system.cpu0.dcache.tags.data_accesses        48983898                       # Number of data accesses
system.cpu0.dcache.tags.power_state.pwrStateResidencyTicks::UNDEFINED  14574006500                       # Cumulative time (in ticks) in various power states
system.cpu0.power_state.pwrStateResidencyTicks::ON  14574006500                       # Cumulative time (in ticks) in various power states
system.cpu0.itb.walker.power_state.pwrStateResidencyTicks::UNDEFINED  14574006500                       # Cumulative time (in ticks) in various power states
system.cpu1.icache.demand_hits::.cpu1.inst       749449                       # number of demand (read+write) hits
system.cpu1.icache.demand_hits::total          749449                       # number of demand (read+write) hits
system.cpu1.icache.overall_hits::.cpu1.inst       749449                       # number of overall hits
system.cpu1.icache.overall_hits::total         749449                       # number of overall hits
system.cpu1.icache.demand_misses::.cpu1.inst       711028                       # number of demand (read+write) misses
system.cpu1.icache.demand_misses::total        711028                       # number of demand (read+write) misses
system.cpu1.icache.overall_misses::.cpu1.inst       711028                       # number of overall misses
system.cpu1.icache.overall_misses::total       711028                       # number of overall misses
system.cpu1.icache.demand_miss_latency::.cpu1.inst   9401324500                       # number of demand (read+write) miss cycles
system.cpu1.icache.demand_miss_latency::total   9401324500                       # number of demand (read+write) miss cycles
system.cpu1.icache.overall_miss_latency::.cpu1.inst   9401324500                       # number of overall miss cycles
system.cpu1.icache.overall_miss_latency::total   9401324500                       # number of overall miss cycles
system.cpu1.icache.demand_accesses::.cpu1.inst      1460477                       # number of demand (read+write) accesses
system.cpu1.icache.demand_accesses::total      1460477                       # number of demand (read+write) accesses
system.cpu1.icache.overall_accesses::.cpu1.inst      1460477                       # number of overall (read+write) accesses
system.cpu1.icache.overall_accesses::total      1460477                       # number of overall (read+write) accesses
system.cpu1.icache.demand_miss_rate::.cpu1.inst     0.486846                       # miss rate for demand accesses
system.cpu1.icache.demand_miss_rate::total     0.486846                       # miss rate for demand accesses
system.cpu1.icache.overall_miss_rate::.cpu1.inst     0.486846                       # miss rate for overall accesses
system.cpu1.icache.overall_miss_rate::total     0.486846                       # miss rate for overall accesses
system.cpu1.icache.demand_avg_miss_latency::.cpu1.inst 13222.157918                       # average overall miss latency
system.cpu1.icache.demand_avg_miss_latency::total 13222.157918                       # average overall miss latency
system.cpu1.icache.overall_avg_miss_latency::.cpu1.inst 13222.157918                       # average overall miss latency
system.cpu1.icache.overall_avg_miss_latency::total 13222.157918                       # average overall miss latency
system.cpu1.icache.blocked_cycles::no_mshrs            0                       # number of cycles access was blocked
system.cpu1.icache.blocked_cycles::no_targets            0                       # number of cycles access was blocked
system.cpu1.icache.blocked::no_mshrs                0                       # number of cycles access was blocked
system.cpu1.icache.blocked::no_targets              0                       # number of cycles access was blocked
system.cpu1.icache.avg_blocked_cycles::no_mshrs          nan                       # average number of cycles each access was blocked
system.cpu1.icache.avg_blocked_cycles::no_targets          nan                       # average number of cycles each access was blocked
system.cpu1.icache.writebacks::.writebacks       711011                       # number of writebacks
system.cpu1.icache.writebacks::total           711011                       # number of writebacks
system.cpu1.icache.demand_mshr_misses::.cpu1.inst       711028                       # number of demand (read+write) MSHR misses
system.cpu1.icache.demand_mshr_misses::total       711028                       # number of demand (read+write) MSHR misses
system.cpu1.icache.overall_mshr_misses::.cpu1.inst       711028                       # number of overall MSHR misses
system.cpu1.icache.overall_mshr_misses::total       711028                       # number of overall MSHR misses
system.cpu1.icache.demand_mshr_miss_latency::.cpu1.inst   8690297500                       # number of demand (read+write) MSHR miss cycles
system.cpu1.icache.demand_mshr_miss_latency::total   8690297500                       # number of demand (read+write) MSHR miss cycles
system.cpu1.icache.overall_mshr_miss_latency::.cpu1.inst   8690297500                       # number of overall MSHR miss cycles
system.cpu1.icache.overall_mshr_miss_latency::total   8690297500                       # number of overall MSHR miss cycles
system.cpu1.icache.demand_mshr_miss_rate::.cpu1.inst     0.486846                       # mshr miss rate for demand accesses
system.cpu1.icache.demand_mshr_miss_rate::total     0.486846                       # mshr miss rate for demand accesses
system.cpu1.icache.overall_mshr_miss_rate::.cpu1.inst     0.486846                       # mshr miss rate for overall accesses
system.cpu1.icache.overall_mshr_miss_rate::total     0.486846                       # mshr miss rate for overall accesses
system.cpu1.icache.demand_avg_mshr_miss_latency::.cpu1.inst 12222.159324                       # average overall mshr miss latency
system.cpu1.icache.demand_avg_mshr_miss_latency::total 12222.159324                       # average overall mshr miss latency
system.cpu1.icache.overall_avg_mshr_miss_latency::.cpu1.inst 12222.159324                       # average overall mshr miss latency
system.cpu1.icache.overall_avg_mshr_miss_latency::total 12222.159324                       # average overall mshr miss latency
system.cpu1.icache.replacements                711011                       # number of replacements
system.cpu1.icache.ReadReq_hits::.cpu1.inst       749449                       # number of ReadReq hits
system.cpu1.icache.ReadReq_hits::total         749449                       # number of ReadReq hits
system.cpu1.icache.ReadReq_misses::.cpu1.inst       711028                       # number of ReadReq misses
system.cpu1.icache.ReadReq_misses::total       711028                       # number of ReadReq misses
system.cpu1.icache.ReadReq_miss_latency::.cpu1.inst   9401324500                       # number of ReadReq miss cycles
system.cpu1.icache.ReadReq_miss_latency::total   9401324500                       # number of ReadReq miss cycles
system.cpu1.icache.ReadReq_accesses::.cpu1.inst      1460477                       # number of ReadReq accesses(hits+misses)
system.cpu1.icache.ReadReq_accesses::total      1460477                       # number of ReadReq accesses(hits+misses)
system.cpu1.icache.ReadReq_miss_rate::.cpu1.inst     0.486846                       # miss rate for ReadReq accesses
system.cpu1.icache.ReadReq_miss_rate::total     0.486846                       # miss rate for ReadReq accesses
system.cpu1.icache.ReadReq_avg_miss_latency::.cpu1.inst 13222.157918                       # average ReadReq miss latency
system.cpu1.icache.ReadReq_avg_miss_latency::total 13222.157918                       # average ReadReq miss latency
system.cpu1.icache.ReadReq_mshr_misses::.cpu1.inst       711028                       # number of ReadReq MSHR misses
system.cpu1.icache.ReadReq_mshr_misses::total       711028                       # number of ReadReq MSHR misses
system.cpu1.icache.ReadReq_mshr_miss_latency::.cpu1.inst   8690297500                       # number of ReadReq MSHR miss cycles
system.cpu1.icache.ReadReq_mshr_miss_latency::total   8690297500                       # number of ReadReq MSHR miss cycles
system.cpu1.icache.ReadReq_mshr_miss_rate::.cpu1.inst     0.486846                       # mshr miss rate for ReadReq accesses
system.cpu1.icache.ReadReq_mshr_miss_rate::total     0.486846                       # mshr miss rate for ReadReq accesses
system.cpu1.icache.ReadReq_avg_mshr_miss_latency::.cpu1.inst 12222.159324                       # average ReadReq mshr miss latency
system.cpu1.icache.ReadReq_avg_mshr_miss_latency::total 12222.159324                       # average ReadReq mshr miss latency
system.cpu1.icache.power_state.pwrStateResidencyTicks::UNDEFINED  14574006500                       # Cumulative time (in ticks) in various power states
system.cpu1.icache.tags.tagsinuse           15.999035                       # Cycle average of tags in use
system.cpu1.icache.tags.total_refs            1460476                       # Total number of references to valid blocks.
system.cpu1.icache.tags.sampled_refs           711027                       # Sample count of references to valid blocks.
system.cpu1.icache.tags.avg_refs             2.054037                       # Average number of references to valid blocks.
system.cpu1.icache.tags.warmup_cycle            94500                       # Cycle when the warmup percentage was hit.
system.cpu1.icache.tags.occ_blocks::.cpu1.inst    15.999035                       # Average occupied blocks per requestor
system.cpu1.icache.tags.occ_percent::.cpu1.inst     0.999940                       # Average percentage of cache occupancy
system.cpu1.icache.tags.occ_percent::total     0.999940                       # Average percentage of cache occupancy
system.cpu1.icache.tags.occ_task_id_blocks::1024           16                       # Occupied blocks per task id
system.cpu1.icache.tags.age_task_id_blocks_1024::0           16                       # Occupied blocks per task id
system.cpu1.icache.tags.occ_task_id_percent::1024            1                       # Percentage of cache occupancy per task id
system.cpu1.icache.tags.tag_accesses         12394843                       # Number of tag accesses
system.cpu1.icache.tags.data_accesses        12394843                       # Number of data accesses
system.cpu1.icache.tags.power_state.pwrStateResidencyTicks::UNDEFINED  14574006500                       # Cumulative time (in ticks) in various power states
system.cpu1.dtb.walker.power_state.pwrStateResidencyTicks::UNDEFINED  14574006500                       # Cumulative time (in ticks) in various power states
system.cpu1.interrupts.clk_domain.clock          8000                       # Clock period in ticks
system.cpu1.itb_walker_cache.blocked_cycles::no_mshrs            0                       # number of cycles access was blocked
system.cpu1.itb_walker_cache.blocked_cycles::no_targets            0                       # number of cycles access was blocked
system.cpu1.itb_walker_cache.blocked::no_mshrs            0                       # number of cycles access was blocked
system.cpu1.itb_walker_cache.blocked::no_targets            0                       # number of cycles access was blocked
system.cpu1.itb_walker_cache.avg_blocked_cycles::no_mshrs          nan                       # average number of cycles each access was blocked
system.cpu1.itb_walker_cache.avg_blocked_cycles::no_targets          nan                       # average number of cycles each access was blocked
system.cpu1.itb_walker_cache.replacements            0                       # number of replacements
system.cpu1.itb_walker_cache.power_state.pwrStateResidencyTicks::UNDEFINED  14574006500                       # Cumulative time (in ticks) in various power states
system.cpu1.itb_walker_cache.tags.tagsinuse            0                       # Cycle average of tags in use
system.cpu1.itb_walker_cache.tags.total_refs            0                       # Total number of references to valid blocks.
system.cpu1.itb_walker_cache.tags.sampled_refs            0                       # Sample count of references to valid blocks.
system.cpu1.itb_walker_cache.tags.avg_refs          nan                       # Average number of references to valid blocks.
system.cpu1.itb_walker_cache.tags.warmup_cycle            0                       # Cycle when the warmup percentage was hit.
system.cpu1.itb_walker_cache.tags.tag_accesses            0                       # Number of tag accesses
system.cpu1.itb_walker_cache.tags.data_accesses            0                       # Number of data accesses
system.cpu1.itb_walker_cache.tags.power_state.pwrStateResidencyTicks::UNDEFINED  14574006500                       # Cumulative time (in ticks) in various power states
system.cpu1.dtb_walker_cache.blocked_cycles::no_mshrs            0                       # number of cycles access was blocked
system.cpu1.dtb_walker_cache.blocked_cycles::no_targets            0                       # number of cycles access was blocked
system.cpu1.dtb_walker_cache.blocked::no_mshrs            0                       # number of cycles access was blocked
system.cpu1.dtb_walker_cache.blocked::no_targets            0                       # number of cycles access was blocked
system.cpu1.dtb_walker_cache.avg_blocked_cycles::no_mshrs          nan                       # average number of cycles each access was blocked
system.cpu1.dtb_walker_cache.avg_blocked_cycles::no_targets          nan                       # average number of cycles each access was blocked
system.cpu1.dtb_walker_cache.replacements            0                       # number of replacements
system.cpu1.dtb_walker_cache.power_state.pwrStateResidencyTicks::UNDEFINED  14574006500                       # Cumulative time (in ticks) in various power states
system.cpu1.dtb_walker_cache.tags.tagsinuse            0                       # Cycle average of tags in use
system.cpu1.dtb_walker_cache.tags.total_refs            0                       # Total number of references to valid blocks.
system.cpu1.dtb_walker_cache.tags.sampled_refs            0                       # Sample count of references to valid blocks.
system.cpu1.dtb_walker_cache.tags.avg_refs          nan                       # Average number of references to valid blocks.
system.cpu1.dtb_walker_cache.tags.warmup_cycle            0                       # Cycle when the warmup percentage was hit.
system.cpu1.dtb_walker_cache.tags.tag_accesses            0                       # Number of tag accesses
system.cpu1.dtb_walker_cache.tags.data_accesses            0                       # Number of data accesses
system.cpu1.dtb_walker_cache.tags.power_state.pwrStateResidencyTicks::UNDEFINED  14574006500                       # Cumulative time (in ticks) in various power states
system.cpu1.dcache.demand_hits::.cpu1.data      1476895                       # number of demand (read+write) hits
system.cpu1.dcache.demand_hits::total         1476895                       # number of demand (read+write) hits
system.cpu1.dcache.overall_hits::.cpu1.data      1476895                       # number of overall hits
system.cpu1.dcache.overall_hits::total        1476895                       # number of overall hits
system.cpu1.dcache.demand_misses::.cpu1.data       318718                       # number of demand (read+write) misses
system.cpu1.dcache.demand_misses::total        318718                       # number of demand (read+write) misses
system.cpu1.dcache.overall_misses::.cpu1.data       318718                       # number of overall misses
system.cpu1.dcache.overall_misses::total       318718                       # number of overall misses
system.cpu1.dcache.demand_miss_latency::.cpu1.data   6204498000                       # number of demand (read+write) miss cycles
system.cpu1.dcache.demand_miss_latency::total   6204498000                       # number of demand (read+write) miss cycles
system.cpu1.dcache.overall_miss_latency::.cpu1.data   6204498000                       # number of overall miss cycles
system.cpu1.dcache.overall_miss_latency::total   6204498000                       # number of overall miss cycles
system.cpu1.dcache.demand_accesses::.cpu1.data      1795613                       # number of demand (read+write) accesses
system.cpu1.dcache.demand_accesses::total      1795613                       # number of demand (read+write) accesses
system.cpu1.dcache.overall_accesses::.cpu1.data      1795613                       # number of overall (read+write) accesses
system.cpu1.dcache.overall_accesses::total      1795613                       # number of overall (read+write) accesses
system.cpu1.dcache.demand_miss_rate::.cpu1.data     0.177498                       # miss rate for demand accesses
system.cpu1.dcache.demand_miss_rate::total     0.177498                       # miss rate for demand accesses
system.cpu1.dcache.overall_miss_rate::.cpu1.data     0.177498                       # miss rate for overall accesses
system.cpu1.dcache.overall_miss_rate::total     0.177498                       # miss rate for overall accesses
system.cpu1.dcache.demand_avg_miss_latency::.cpu1.data 19467.046103                       # average overall miss latency
system.cpu1.dcache.demand_avg_miss_latency::total 19467.046103                       # average overall miss latency
system.cpu1.dcache.overall_avg_miss_latency::.cpu1.data 19467.046103                       # average overall miss latency
system.cpu1.dcache.overall_avg_miss_latency::total 19467.046103                       # average overall miss latency
system.cpu1.dcache.blocked_cycles::no_mshrs            0                       # number of cycles access was blocked
system.cpu1.dcache.blocked_cycles::no_targets            0                       # number of cycles access was blocked
system.cpu1.dcache.blocked::no_mshrs                0                       # number of cycles access was blocked
system.cpu1.dcache.blocked::no_targets              0                       # number of cycles access was blocked
system.cpu1.dcache.avg_blocked_cycles::no_mshrs          nan                       # average number of cycles each access was blocked
system.cpu1.dcache.avg_blocked_cycles::no_targets          nan                       # average number of cycles each access was blocked
system.cpu1.dcache.writebacks::.writebacks       190123                       # number of writebacks
system.cpu1.dcache.writebacks::total           190123                       # number of writebacks
system.cpu1.dcache.demand_mshr_hits::.cpu1.data        37800                       # number of demand (read+write) MSHR hits
system.cpu1.dcache.demand_mshr_hits::total        37800                       # number of demand (read+write) MSHR hits
system.cpu1.dcache.overall_mshr_hits::.cpu1.data        37800                       # number of overall MSHR hits
system.cpu1.dcache.overall_mshr_hits::total        37800                       # number of overall MSHR hits
system.cpu1.dcache.demand_mshr_misses::.cpu1.data       280918                       # number of demand (read+write) MSHR misses
system.cpu1.dcache.demand_mshr_misses::total       280918                       # number of demand (read+write) MSHR misses
system.cpu1.dcache.overall_mshr_misses::.cpu1.data       280918                       # number of overall MSHR misses
system.cpu1.dcache.overall_mshr_misses::total       280918                       # number of overall MSHR misses
system.cpu1.dcache.demand_mshr_miss_latency::.cpu1.data   4904301500                       # number of demand (read+write) MSHR miss cycles
system.cpu1.dcache.demand_mshr_miss_latency::total   4904301500                       # number of demand (read+write) MSHR miss cycles
system.cpu1.dcache.overall_mshr_miss_latency::.cpu1.data   4904301500                       # number of overall MSHR miss cycles
system.cpu1.dcache.overall_mshr_miss_latency::total   4904301500                       # number of overall MSHR miss cycles
system.cpu1.dcache.demand_mshr_miss_rate::.cpu1.data     0.156447                       # mshr miss rate for demand accesses
system.cpu1.dcache.demand_mshr_miss_rate::total     0.156447                       # mshr miss rate for demand accesses
system.cpu1.dcache.overall_mshr_miss_rate::.cpu1.data     0.156447                       # mshr miss rate for overall accesses
system.cpu1.dcache.overall_mshr_miss_rate::total     0.156447                       # mshr miss rate for overall accesses
system.cpu1.dcache.demand_avg_mshr_miss_latency::.cpu1.data 17458.124791                       # average overall mshr miss latency
system.cpu1.dcache.demand_avg_mshr_miss_latency::total 17458.124791                       # average overall mshr miss latency
system.cpu1.dcache.overall_avg_mshr_miss_latency::.cpu1.data 17458.124791                       # average overall mshr miss latency
system.cpu1.dcache.overall_avg_mshr_miss_latency::total 17458.124791                       # average overall mshr miss latency
system.cpu1.dcache.replacements                280902                       # number of replacements
system.cpu1.dcache.ReadReq_hits::.cpu1.data       855125                       # number of ReadReq hits
system.cpu1.dcache.ReadReq_hits::total         855125                       # number of ReadReq hits
system.cpu1.dcache.ReadReq_misses::.cpu1.data       205939                       # number of ReadReq misses
system.cpu1.dcache.ReadReq_misses::total       205939                       # number of ReadReq misses
system.cpu1.dcache.ReadReq_miss_latency::.cpu1.data   3153481000                       # number of ReadReq miss cycles
system.cpu1.dcache.ReadReq_miss_latency::total   3153481000                       # number of ReadReq miss cycles
system.cpu1.dcache.ReadReq_accesses::.cpu1.data      1061064                       # number of ReadReq accesses(hits+misses)
system.cpu1.dcache.ReadReq_accesses::total      1061064                       # number of ReadReq accesses(hits+misses)
system.cpu1.dcache.ReadReq_miss_rate::.cpu1.data     0.194087                       # miss rate for ReadReq accesses
system.cpu1.dcache.ReadReq_miss_rate::total     0.194087                       # miss rate for ReadReq accesses
system.cpu1.dcache.ReadReq_avg_miss_latency::.cpu1.data 15312.694536                       # average ReadReq miss latency
system.cpu1.dcache.ReadReq_avg_miss_latency::total 15312.694536                       # average ReadReq miss latency
system.cpu1.dcache.ReadReq_mshr_hits::.cpu1.data         7983                       # number of ReadReq MSHR hits
[...]
system.mem_ctrls.bytesPerActivate::768-895          348      2.06%     94.59% # Bytes accessed per row activation
system.mem_ctrls.bytesPerActivate::896-1023          246      1.46%     96.05% # Bytes accessed per row activation
system.mem_ctrls.bytesPerActivate::1024-1151          666      3.95%    100.00% # Bytes accessed per row activation
system.mem_ctrls.bytesPerActivate::total        16867                       # Bytes accessed per row activation
system.mem_ctrls.rdPerTurnAround::samples         1588                       # Reads before turning the bus around for writes
system.mem_ctrls.rdPerTurnAround::mean      30.316751                       # Reads before turning the bus around for writes
system.mem_ctrls.rdPerTurnAround::gmean     24.552653                       # Reads before turning the bus around for writes
system.mem_ctrls.rdPerTurnAround::stdev     41.838466                       # Reads before turning the bus around for writes
system.mem_ctrls.rdPerTurnAround::0-31           1340     84.38%     84.38% # Reads before turning the bus around for writes
system.mem_ctrls.rdPerTurnAround::32-63           184     11.59%     95.97% # Reads before turning the bus around for writes
system.mem_ctrls.rdPerTurnAround::64-95            13      0.82%     96.79% # Reads before turning the bus around for writes
system.mem_ctrls.rdPerTurnAround::96-127           10      0.63%     97.42% # Reads before turning the bus around for writes
system.mem_ctrls.rdPerTurnAround::128-159            9      0.57%     97.98% # Reads before turning the bus around for writes
system.mem_ctrls.rdPerTurnAround::160-191            8      0.50%     98.49% # Reads before turning the bus around for writes
system.mem_ctrls.rdPerTurnAround::192-223            7      0.44%     98.93% # Reads before turning the bus around for writes
system.mem_ctrls.rdPerTurnAround::224-255            4      0.25%     99.18% # Reads before turning the bus around for writes
system.mem_ctrls.rdPerTurnAround::256-287            1      0.06%     99.24% # Reads before turning the bus around for writes
system.mem_ctrls.rdPerTurnAround::288-319            4      0.25%     99.50% # Reads before turning the bus around for writes
system.mem_ctrls.rdPerTurnAround::320-351            2      0.13%     99.62% # Reads before turning the bus around for writes
system.mem_ctrls.rdPerTurnAround::384-415            2      0.13%     99.75% # Reads before turning the bus around for writes
system.mem_ctrls.rdPerTurnAround::416-447            1      0.06%     99.81% # Reads before turning the bus around for writes
system.mem_ctrls.rdPerTurnAround::480-511            1      0.06%     99.87% # Reads before turning the bus around for writes
system.mem_ctrls.rdPerTurnAround::576-607            1      0.06%     99.94% # Reads before turning the bus around for writes
system.mem_ctrls.rdPerTurnAround::640-671            1      0.06%    100.00% # Reads before turning the bus around for writes
system.mem_ctrls.rdPerTurnAround::total          1588                       # Reads before turning the bus around for writes
system.mem_ctrls.wrPerTurnAround::samples         1588                       # Writes before turning the bus around for reads
system.mem_ctrls.wrPerTurnAround::mean      16.556675                       # Writes before turning the bus around for reads
system.mem_ctrls.wrPerTurnAround::gmean     16.531465                       # Writes before turning the bus around for reads
system.mem_ctrls.wrPerTurnAround::stdev      0.935170                       # Writes before turning the bus around for reads
system.mem_ctrls.wrPerTurnAround::16             1148     72.29%     72.29% # Writes before turning the bus around for reads
system.mem_ctrls.wrPerTurnAround::17               40      2.52%     74.81% # Writes before turning the bus around for reads
system.mem_ctrls.wrPerTurnAround::18              362     22.80%     97.61% # Writes before turning the bus around for reads
system.mem_ctrls.wrPerTurnAround::19               35      2.20%     99.81% # Writes before turning the bus around for reads
system.mem_ctrls.wrPerTurnAround::20                1      0.06%     99.87% # Writes before turning the bus around for reads
system.mem_ctrls.wrPerTurnAround::21                1      0.06%     99.94% # Writes before turning the bus around for reads
system.mem_ctrls.wrPerTurnAround::22                1      0.06%    100.00% # Writes before turning the bus around for reads
system.mem_ctrls.wrPerTurnAround::total          1588                       # Writes before turning the bus around for reads
system.mem_ctrls.bytesReadDRAM                3082112                       # Total number of bytes read from DRAM
system.mem_ctrls.bytesReadWrQ                   21248                       # Total number of bytes read from write queue
system.mem_ctrls.bytesWritten                 1682688                       # Total number of bytes written to DRAM
system.mem_ctrls.bytesReadSys                 3103360                       # Total read bytes from the system interface side
system.mem_ctrls.bytesWrittenSys              1688768                       # Total written bytes from the system interface side
system.mem_ctrls.avgRdBW                       211.48                       # Average DRAM read bandwidth in MiByte/s
system.mem_ctrls.avgWrBW                       115.46                       # Average achieved write bandwidth in MiByte/s
system.mem_ctrls.avgRdBWSys                    212.94                       # Average system read bandwidth in MiByte/s
system.mem_ctrls.avgWrBWSys                    115.88                       # Average system write bandwidth in MiByte/s
system.mem_ctrls.peakBW                      12800.00                       # Theoretical peak bandwidth in MiByte/s
system.mem_ctrls.busUtil                         2.55                       # Data bus utilization in percentage
system.mem_ctrls.busUtilRead                     1.65                       # Data bus utilization in percentage for reads
system.mem_ctrls.busUtilWrite                    0.90                       # Data bus utilization in percentage for writes
system.mem_ctrls.totGap                   14572894000                       # Total gap between requests
system.mem_ctrls.avgGap                     194624.44                       # Average gap between requests
system.mem_ctrls.masterReadBytes::.cpu0.inst       304640                       # Per-master bytes read from memory
system.mem_ctrls.masterReadBytes::.cpu0.data      1374784                       # Per-master bytes read from memory
system.mem_ctrls.masterReadBytes::.cpu1.inst       120000                       # Per-master bytes read from memory
system.mem_ctrls.masterReadBytes::.cpu1.data      1282688                       # Per-master bytes read from memory
system.mem_ctrls.masterWriteBytes::.writebacks      1682688                       # Per-master bytes write to memory
system.mem_ctrls.masterReadRate::.cpu0.inst 20902968.583141498268                       # Per-master bytes read from memory rate (Bytes/sec)
system.mem_ctrls.masterReadRate::.cpu0.data 94331232.801357671618                       # Per-master bytes read from memory rate (Bytes/sec)
system.mem_ctrls.masterReadRate::.cpu1.inst 8233837.414577796124                       # Per-master bytes read from memory rate (Bytes/sec)
system.mem_ctrls.masterReadRate::.cpu1.data 88012037.046916365623                       # Per-master bytes read from memory rate (Bytes/sec)
system.mem_ctrls.masterWriteRate::.writebacks 115458161.762175694108                       # Per-master bytes write to memory rate (Bytes/sec)
system.mem_ctrls.masterReadAccesses::.cpu0.inst         4760                       # Per-master read serviced memory accesses
system.mem_ctrls.masterReadAccesses::.cpu0.data        21796                       # Per-master read serviced memory accesses
system.mem_ctrls.masterReadAccesses::.cpu1.inst         1875                       # Per-master read serviced memory accesses
system.mem_ctrls.masterReadAccesses::.cpu1.data        20059                       # Per-master read serviced memory accesses
system.mem_ctrls.masterWriteAccesses::.writebacks        26387                       # Per-master write serviced memory accesses
system.mem_ctrls.masterReadTotalLat::.cpu0.inst    137687750                       # Per-master read total memory access latency
system.mem_ctrls.masterReadTotalLat::.cpu0.data    669818500                       # Per-master read total memory access latency
system.mem_ctrls.masterReadTotalLat::.cpu1.inst     58205250                       # Per-master read total memory access latency
system.mem_ctrls.masterReadTotalLat::.cpu1.data    587376500                       # Per-master read total memory access latency
system.mem_ctrls.masterWriteTotalLat::.writebacks 351570200500                       # Per-master write total memory access latency
system.mem_ctrls.masterReadAvgLat::.cpu0.inst     28926.00                       # Per-master read average memory access latency
system.mem_ctrls.masterReadAvgLat::.cpu0.data     30731.26                       # Per-master read average memory access latency
system.mem_ctrls.masterReadAvgLat::.cpu1.inst     31042.80                       # Per-master read average memory access latency
system.mem_ctrls.masterReadAvgLat::.cpu1.data     29282.44                       # Per-master read average memory access latency
system.mem_ctrls.masterWriteAvgLat::.writebacks  13323613.92                       # Per-master write average memory access latency
system.mem_ctrls.pageHitRate                    77.31                       # Row buffer hit rate, read and write combined
system.mem_ctrls.rank1.actEnergy             60597180                       # Energy for activate commands per rank (pJ)
system.mem_ctrls.rank1.preEnergy             32208165                       # Energy for precharge commands per rank (pJ)
system.mem_ctrls.rank1.readEnergy           166733280                       # Energy for read commands per rank (pJ)
system.mem_ctrls.rank1.writeEnergy           75606480                       # Energy for write commands per rank (pJ)
system.mem_ctrls.rank1.refreshEnergy     1149991440.000000                       # Energy for refresh commands per rank (pJ)
system.mem_ctrls.rank1.actBackEnergy       4889823660                       # Energy for active background per rank (pJ)
system.mem_ctrls.rank1.preBackEnergy       1478672640                       # Energy for precharge background per rank (pJ)
system.mem_ctrls.rank1.actPowerDownEnergy            0                       # Energy for active power-down per rank (pJ)
system.mem_ctrls.rank1.prePowerDownEnergy            0                       # Energy for precharge power-down per rank (pJ)
system.mem_ctrls.rank1.selfRefreshEnergy            0                       # Energy for self refresh per rank (pJ)
system.mem_ctrls.rank1.totalEnergy         7853632845                       # Total energy per rank (pJ)
system.mem_ctrls.rank1.averagePower        538.879466                       # Core power per rank (mW)
system.mem_ctrls.rank1.totalIdleTime                0                       # Total Idle time Per DRAM Rank
system.mem_ctrls.rank1.memoryStateTime::IDLE   3799647750                       # Time in different power states
system.mem_ctrls.rank1.memoryStateTime::REF    486460000                       # Time in different power states
system.mem_ctrls.rank1.memoryStateTime::SREF            0                       # Time in different power states
system.mem_ctrls.rank1.memoryStateTime::PRE_PDN            0                       # Time in different power states
system.mem_ctrls.rank1.memoryStateTime::ACT  10287898750                       # Time in different power states
system.mem_ctrls.rank1.memoryStateTime::ACT_PDN            0                       # Time in different power states
system.mem_ctrls.rank0.actEnergy             59847480                       # Energy for activate commands per rank (pJ)
system.mem_ctrls.rank0.preEnergy             31802100                       # Energy for precharge commands per rank (pJ)
system.mem_ctrls.rank0.readEnergy           177114840                       # Energy for read commands per rank (pJ)
system.mem_ctrls.rank0.writeEnergy           61637760                       # Energy for write commands per rank (pJ)
system.mem_ctrls.rank0.refreshEnergy     1149991440.000000                       # Energy for refresh commands per rank (pJ)
system.mem_ctrls.rank0.actBackEnergy       4857365010                       # Energy for active background per rank (pJ)
system.mem_ctrls.rank0.preBackEnergy       1506006240                       # Energy for precharge background per rank (pJ)
system.mem_ctrls.rank0.actPowerDownEnergy            0                       # Energy for active power-down per rank (pJ)
system.mem_ctrls.rank0.prePowerDownEnergy            0                       # Energy for precharge power-down per rank (pJ)
system.mem_ctrls.rank0.selfRefreshEnergy            0                       # Energy for self refresh per rank (pJ)
system.mem_ctrls.rank0.totalEnergy         7843764870                       # Total energy per rank (pJ)
system.mem_ctrls.rank0.averagePower        538.202372                       # Core power per rank (mW)
system.mem_ctrls.rank0.totalIdleTime                0                       # Total Idle time Per DRAM Rank
system.mem_ctrls.rank0.memoryStateTime::IDLE   3871139750                       # Time in different power states
system.mem_ctrls.rank0.memoryStateTime::REF    486460000                       # Time in different power states
system.mem_ctrls.rank0.memoryStateTime::SREF            0                       # Time in different power states
system.mem_ctrls.rank0.memoryStateTime::PRE_PDN            0                       # Time in different power states
system.mem_ctrls.rank0.memoryStateTime::ACT  10216406750                       # Time in different power states
system.mem_ctrls.rank0.memoryStateTime::ACT_PDN            0                       # Time in different power states
system.mem_ctrls.power_state.pwrStateResidencyTicks::UNDEFINED  14574006500                       # Cumulative time (in ticks) in various power states
system.cpu_clk_domain.clock                       500                       # Clock period in ticks
system.tol2bus.trans_dist::ReadResp           1089054                       # Transaction distribution
system.tol2bus.trans_dist::WritebackDirty       275939                       # Transaction distribution
system.tol2bus.trans_dist::WritebackClean       724718                       # Transaction distribution
system.tol2bus.trans_dist::CleanEvict          277564                       # Transaction distribution
system.tol2bus.trans_dist::ReadExReq           137968                       # Transaction distribution
system.tol2bus.trans_dist::ReadExResp          137968                       # Transaction distribution
system.tol2bus.trans_dist::ReadCleanReq        724751                       # Transaction distribution
system.tol2bus.trans_dist::ReadSharedReq       364304                       # Transaction distribution
system.tol2bus.pkt_count_system.cpu0.icache.mem_side::system.l2.cpu_side        41153                       # Packet count per connected master and slave (bytes)
system.tol2bus.pkt_count_system.cpu0.dcache.mem_side::system.l2.cpu_side       664046                       # Packet count per connected master and slave (bytes)
system.tol2bus.pkt_count_system.cpu1.icache.mem_side::system.l2.cpu_side      2133066                       # Packet count per connected master and slave (bytes)
system.tol2bus.pkt_count_system.cpu1.dcache.mem_side::system.l2.cpu_side       842738                       # Packet count per connected master and slave (bytes)
system.tol2bus.pkt_count::total               3681003                       # Packet count per connected master and slave (bytes)
system.tol2bus.pkt_size_system.cpu0.icache.mem_side::system.l2.cpu_side      1755520                       # Cumulative packet size per connected master and slave (bytes)
system.tol2bus.pkt_size_system.cpu0.dcache.mem_side::system.l2.cpu_side     17970112                       # Cumulative packet size per connected master and slave (bytes)
system.tol2bus.pkt_size_system.cpu1.icache.mem_side::system.l2.cpu_side     91010432                       # Cumulative packet size per connected master and slave (bytes)
system.tol2bus.pkt_size_system.cpu1.dcache.mem_side::system.l2.cpu_side     30146624                       # Cumulative packet size per connected master and slave (bytes)
system.tol2bus.pkt_size::total              140882688                       # Cumulative packet size per connected master and slave (bytes)
system.tol2bus.snoops                           51263                       # Total snoops (count)
system.tol2bus.snoopTraffic                   1688768                       # Total snoop traffic (bytes)
system.tol2bus.snoop_fanout::samples          1278286                       # Request fanout histogram
system.tol2bus.snoop_fanout::mean            0.004952                       # Request fanout histogram
system.tol2bus.snoop_fanout::stdev           0.070196                       # Request fanout histogram
system.tol2bus.snoop_fanout::underflows             0      0.00%      0.00% # Request fanout histogram
system.tol2bus.snoop_fanout::0                1271956     99.50%     99.50% # Request fanout histogram
system.tol2bus.snoop_fanout::1                   6330      0.50%    100.00% # Request fanout histogram
system.tol2bus.snoop_fanout::2                      0      0.00%    100.00% # Request fanout histogram
system.tol2bus.snoop_fanout::3                      0      0.00%    100.00% # Request fanout histogram
system.tol2bus.snoop_fanout::4                      0      0.00%    100.00% # Request fanout histogram
system.tol2bus.snoop_fanout::5                      0      0.00%    100.00% # Request fanout histogram
system.tol2bus.snoop_fanout::6                      0      0.00%    100.00% # Request fanout histogram
system.tol2bus.snoop_fanout::7                      0      0.00%    100.00% # Request fanout histogram
system.tol2bus.snoop_fanout::8                      0      0.00%    100.00% # Request fanout histogram
system.tol2bus.snoop_fanout::overflows              0      0.00%    100.00% # Request fanout histogram
system.tol2bus.snoop_fanout::min_value              0                       # Request fanout histogram
system.tol2bus.snoop_fanout::max_value              1                       # Request fanout histogram
system.tol2bus.snoop_fanout::total            1278286                       # Request fanout histogram
system.tol2bus.reqLayer0.occupancy         2201260500                       # Layer occupancy (ticks)
system.tol2bus.reqLayer0.utilization             15.1                       # Layer utilization (%)
system.tol2bus.respLayer5.occupancy         421493766                       # Layer occupancy (ticks)
system.tol2bus.respLayer5.utilization             2.9                       # Layer utilization (%)
system.tol2bus.respLayer4.occupancy        1066651777                       # Layer occupancy (ticks)
system.tol2bus.respLayer4.utilization             7.3                       # Layer utilization (%)
system.tol2bus.respLayer1.occupancy         332526507                       # Layer occupancy (ticks)
system.tol2bus.respLayer1.utilization             2.3                       # Layer utilization (%)
system.tol2bus.respLayer0.occupancy          20642882                       # Layer occupancy (ticks)
system.tol2bus.respLayer0.utilization             0.1                       # Layer utilization (%)
system.tol2bus.power_state.pwrStateResidencyTicks::UNDEFINED  14574006500                       # Cumulative time (in ticks) in various power states

---------- End Simulation Statistics   ----------
