
---------- Begin Simulation Statistics ----------
final_tick                                13967620500                       # Number of ticks from beginning of simulation (restored from checkpoints and never reset)
host_inst_rate                                 247119                       # Simulator instruction rate (inst/s)
host_mem_usage                                4425452                       # Number of bytes of host memory used
host_op_rate                                   428959                       # Simulator op (including micro ops) rate (op/s)
host_seconds                                    51.74                       # Real time elapsed on the host
host_tick_rate                              269932185                       # Simulator tick rate (ticks/s)
sim_freq                                 1000000000000                       # Frequency of simulated ticks
sim_insts                                    12787125                       # Number of instructions simulated
sim_ops                                      22196461                       # Number of ops (including micro ops) simulated
sim_seconds                                  0.013968                       # Number of seconds simulated
sim_ticks                                 13967620500                       # Number of ticks simulated
system.cpu0.branchPred.BTBCorrect                   0                       # Number of correct BTB predictions (this stat may not work properly.
system.cpu0.branchPred.BTBHitPct                  nan                       # BTB Hit Percentage
system.cpu0.branchPred.BTBHits                      0                       # Number of BTB hits
system.cpu0.branchPred.BTBLookups                   0                       # Number of BTB lookups
system.cpu0.branchPred.RASInCorrect                 0                       # Number of incorrect RAS predictions.
system.cpu0.branchPred.condIncorrect               34                       # Number of conditional branches incorrect
system.cpu0.branchPred.condPredicted               75                       # Number of conditional branches predicted
system.cpu0.branchPred.indirectHits                 0                       # Number of indirect target hits.
system.cpu0.branchPred.indirectLookups             23                       # Number of indirect predictor lookups.
system.cpu0.branchPred.indirectMisses              23                       # Number of indirect misses.
system.cpu0.branchPred.lookups                     75                       # Number of BP lookups
system.cpu0.branchPred.usedRAS                      0                       # Number of times the RAS was used to get a target.
system.cpu0.branchPredindirectMispredicted           14                       # Number of mispredicted indirect branches.
system.cpu0.committedInsts                    2787125                       # Number of instructions committed
system.cpu0.committedOps                      5268530                       # Number of ops (including micro ops) committed
system.cpu0.cpi                             10.022957                       # CPI: cycles per instruction
system.cpu0.discardedOps                       987712                       # Number of ops (including micro ops) which were discarded before commit
system.cpu0.dtb.rdAccesses                     709853                       # TLB accesses on read requests
system.cpu0.dtb.rdMisses                        10451                       # TLB misses on read requests
system.cpu0.dtb.wrAccesses                     505554                       # TLB accesses on write requests
system.cpu0.dtb.wrMisses                          377                       # TLB misses on write requests
system.cpu0.fetch2.amo_instructions                 0                       # Number of memory atomic instructions successfully decoded
system.cpu0.fetch2.fp_instructions                  0                       # Number of floating point instructions successfully decoded
system.cpu0.fetch2.int_instructions                 8                       # Number of integer instructions successfully decoded
system.cpu0.fetch2.load_instructions                0                       # Number of memory load instructions successfully decoded
system.cpu0.fetch2.store_instructions               0                       # Number of memory store instructions successfully decoded
system.cpu0.fetch2.vec_instructions                 0                       # Number of SIMD instructions successfully decoded
system.cpu0.idleCycles                       18796036                       # Total number of cycles that the object has spent stopped
system.cpu0.ipc                              0.099771                       # IPC: instructions per cycle
system.cpu0.itb.rdAccesses                          0                       # TLB accesses on read requests
system.cpu0.itb.rdMisses                            0                       # TLB misses on read requests
system.cpu0.itb.wrAccesses                     942003                       # TLB accesses on write requests
system.cpu0.itb.wrMisses                          197                       # TLB misses on write requests
system.cpu0.numCycles                        27935233                       # number of cpu cycles simulated
system.cpu0.numFetchSuspends                        0                       # Number of times Execute suspended instruction fetching
system.cpu0.numWorkItemsCompleted                   0                       # number of work items this cpu completed
system.cpu0.numWorkItemsStarted                     0                       # number of work items this cpu started
system.cpu0.op_class_0::No_OpClass              11997      0.23%      0.23% # Class of committed instruction
system.cpu0.op_class_0::IntAlu                4127298     78.34%     78.57% # Class of committed instruction
system.cpu0.op_class_0::IntMult                 10116      0.19%     78.76% # Class of committed instruction
system.cpu0.op_class_0::IntDiv                   1365      0.03%     78.78% # Class of committed instruction
system.cpu0.op_class_0::FloatAdd                 6982      0.13%     78.92% # Class of committed instruction
system.cpu0.op_class_0::FloatCmp                    0      0.00%     78.92% # Class of committed instruction
system.cpu0.op_class_0::FloatCvt                  160      0.00%     78.92% # Class of committed instruction
system.cpu0.op_class_0::FloatMult                   0      0.00%     78.92% # Class of committed instruction
system.cpu0.op_class_0::FloatMultAcc                0      0.00%     78.92% # Class of committed instruction
system.cpu0.op_class_0::FloatDiv                    0      0.00%     78.92% # Class of committed instruction
system.cpu0.op_class_0::FloatMisc                   0      0.00%     78.92% # Class of committed instruction
system.cpu0.op_class_0::FloatSqrt                   0      0.00%     78.92% # Class of committed instruction
system.cpu0.op_class_0::SimdAdd                   946      0.02%     78.94% # Class of committed instruction
system.cpu0.op_class_0::SimdAddAcc                  0      0.00%     78.94% # Class of committed instruction
system.cpu0.op_class_0::SimdAlu                  1027      0.02%     78.96% # Class of committed instruction
system.cpu0.op_class_0::SimdCmp                    12      0.00%     78.96% # Class of committed instruction
system.cpu0.op_class_0::SimdCvt                  8488      0.16%     79.12% # Class of committed instruction
system.cpu0.op_class_0::SimdMisc                31623      0.60%     79.72% # Class of committed instruction
system.cpu0.op_class_0::SimdMult                    0      0.00%     79.72% # Class of committed instruction
system.cpu0.op_class_0::SimdMultAcc                 0      0.00%     79.72% # Class of committed instruction
system.cpu0.op_class_0::SimdShift                 446      0.01%     79.73% # Class of committed instruction
system.cpu0.op_class_0::SimdShiftAcc                0      0.00%     79.73% # Class of committed instruction
system.cpu0.op_class_0::SimdDiv                     0      0.00%     79.73% # Class of committed instruction
system.cpu0.op_class_0::SimdSqrt                    0      0.00%     79.73% # Class of committed instruction
system.cpu0.op_class_0::SimdFloatAdd                0      0.00%     79.73% # Class of committed instruction
system.cpu0.op_class_0::SimdFloatAlu                0      0.00%     79.73% # Class of committed instruction
system.cpu0.op_class_0::SimdFloatCmp                0      0.00%     79.73% # Class of committed instruction
system.cpu0.op_class_0::SimdFloatCvt                0      0.00%     79.73% # Class of committed instruction
system.cpu0.op_class_0::SimdFloatDiv                0      0.00%     79.73% # Class of committed instruction
system.cpu0.op_class_0::SimdFloatMisc               0      0.00%     79.73% # Class of committed instruction
system.cpu0.op_class_0::SimdFloatMult               0      0.00%     79.73% # Class of committed instruction
system.cpu0.op_class_0::SimdFloatMultAcc            0      0.00%     79.73% # Class of committed instruction
system.cpu0.op_class_0::SimdFloatSqrt               0      0.00%     79.73% # Class of committed instruction
system.cpu0.op_class_0::SimdReduceAdd               0      0.00%     79.73% # Class of committed instruction
system.cpu0.op_class_0::SimdReduceAlu               0      0.00%     79.73% # Class of committed instruction
system.cpu0.op_class_0::SimdReduceCmp               0      0.00%     79.73% # Class of committed instruction
system.cpu0.op_class_0::SimdFloatReduceAdd            0      0.00%     79.73% # Class of committed instruction
system.cpu0.op_class_0::SimdFloatReduceCmp            0      0.00%     79.73% # Class of committed instruction
system.cpu0.op_class_0::SimdAes                     0      0.00%     79.73% # Class of committed instruction
system.cpu0.op_class_0::SimdAesMix                  0      0.00%     79.73% # Class of committed instruction
system.cpu0.op_class_0::SimdSha1Hash                0      0.00%     79.73% # Class of committed instruction
system.cpu0.op_class_0::SimdSha1Hash2               0      0.00%     79.73% # Class of committed instruction
system.cpu0.op_class_0::SimdSha256Hash              0      0.00%     79.73% # Class of committed instruction
system.cpu0.op_class_0::SimdSha256Hash2             0      0.00%     79.73% # Class of committed instruction
system.cpu0.op_class_0::SimdShaSigma2               0      0.00%     79.73% # Class of committed instruction
system.cpu0.op_class_0::SimdShaSigma3               0      0.00%     79.73% # Class of committed instruction
system.cpu0.op_class_0::SimdPredAlu                 0      0.00%     79.73% # Class of committed instruction
system.cpu0.op_class_0::MemRead                579297     11.00%     90.72% # Class of committed instruction
system.cpu0.op_class_0::MemWrite               458169      8.70%     99.42% # Class of committed instruction
system.cpu0.op_class_0::FloatMemRead            19162      0.36%     99.78% # Class of committed instruction
system.cpu0.op_class_0::FloatMemWrite           11442      0.22%    100.00% # Class of committed instruction
system.cpu0.op_class_0::IprAccess                   0      0.00%    100.00% # Class of committed instruction
system.cpu0.op_class_0::InstPrefetch                0      0.00%    100.00% # Class of committed instruction
system.cpu0.op_class_0::total                 5268530                       # Class of committed instruction
system.cpu0.tickCycles                        9139197                       # Number of cycles that the object actually ticked
system.cpu0.workload.numSyscalls                   34                       # Number of system calls
system.cpu1.branchPred.BTBCorrect                   0                       # Number of correct BTB predictions (this stat may not work properly.
system.cpu1.branchPred.BTBHitPct                  nan                       # BTB Hit Percentage
system.cpu1.branchPred.BTBHits                      0                       # Number of BTB hits
system.cpu1.branchPred.BTBLookups                   0                       # Number of BTB lookups
system.cpu1.branchPred.RASInCorrect                 0                       # Number of incorrect RAS predictions.
system.cpu1.branchPred.condIncorrect               43                       # Number of conditional branches incorrect
system.cpu1.branchPred.condPredicted               90                       # Number of conditional branches predicted
system.cpu1.branchPred.indirectHits                 0                       # Number of indirect target hits.
system.cpu1.branchPred.indirectLookups             24                       # Number of indirect predictor lookups.
system.cpu1.branchPred.indirectMisses              24                       # Number of indirect misses.
system.cpu1.branchPred.lookups                     90                       # Number of BP lookups
system.cpu1.branchPred.usedRAS                      0                       # Number of times the RAS was used to get a target.
system.cpu1.branchPredindirectMispredicted           15                       # Number of mispredicted indirect branches.
system.cpu1.committedInsts                   10000000                       # Number of instructions committed
system.cpu1.committedOps                     16927931                       # Number of ops (including micro ops) committed
system.cpu1.cpi                              2.793524                       # CPI: cycles per instruction
system.cpu1.discardedOps                      2872138                       # Number of ops (including micro ops) which were discarded before commit
system.cpu1.dtb.rdAccesses                    4157455                       # TLB accesses on read requests
system.cpu1.dtb.rdMisses                         2418                       # TLB misses on read requests
system.cpu1.dtb.wrAccesses                    2003185                       # TLB accesses on write requests
system.cpu1.dtb.wrMisses                         1712                       # TLB misses on write requests
system.cpu1.fetch2.amo_instructions                 0                       # Number of memory atomic instructions successfully decoded
system.cpu1.fetch2.fp_instructions                  0                       # Number of floating point instructions successfully decoded
system.cpu1.fetch2.int_instructions                 8                       # Number of integer instructions successfully decoded
system.cpu1.fetch2.load_instructions                0                       # Number of memory load instructions successfully decoded
system.cpu1.fetch2.store_instructions               0                       # Number of memory store instructions successfully decoded
system.cpu1.fetch2.vec_instructions                 0                       # Number of SIMD instructions successfully decoded
system.cpu1.idleCycles                        5007350                       # Total number of cycles that the object has spent stopped
system.cpu1.ipc                              0.357971                       # IPC: instructions per cycle
system.cpu1.itb.rdAccesses                          0                       # TLB accesses on read requests
system.cpu1.itb.rdMisses                            0                       # TLB misses on read requests
system.cpu1.itb.wrAccesses                    2443258                       # TLB accesses on write requests
system.cpu1.itb.wrMisses                          201                       # TLB misses on write requests
system.cpu1.numCycles                        27935241                       # number of cpu cycles simulated
system.cpu1.numFetchSuspends                        0                       # Number of times Execute suspended instruction fetching
system.cpu1.numWorkItemsCompleted                   0                       # number of work items this cpu completed
system.cpu1.numWorkItemsStarted                     0                       # number of work items this cpu started
system.cpu1.op_class_0::No_OpClass              31838      0.19%      0.19% # Class of committed instruction
system.cpu1.op_class_0::IntAlu               11081465     65.46%     65.65% # Class of committed instruction
system.cpu1.op_class_0::IntMult                    77      0.00%     65.65% # Class of committed instruction
system.cpu1.op_class_0::IntDiv                   1369      0.01%     65.66% # Class of committed instruction
system.cpu1.op_class_0::FloatAdd                  223      0.00%     65.66% # Class of committed instruction
system.cpu1.op_class_0::FloatCmp                    0      0.00%     65.66% # Class of committed instruction
system.cpu1.op_class_0::FloatCvt                  176      0.00%     65.66% # Class of committed instruction
system.cpu1.op_class_0::FloatMult                   0      0.00%     65.66% # Class of committed instruction
system.cpu1.op_class_0::FloatMultAcc                0      0.00%     65.66% # Class of committed instruction
system.cpu1.op_class_0::FloatDiv                    0      0.00%     65.66% # Class of committed instruction
system.cpu1.op_class_0::FloatMisc                   0      0.00%     65.66% # Class of committed instruction
system.cpu1.op_class_0::FloatSqrt                   0      0.00%     65.66% # Class of committed instruction
system.cpu1.op_class_0::SimdAdd                   952      0.01%     65.67% # Class of committed instruction
system.cpu1.op_class_0::SimdAddAcc                  0      0.00%     65.67% # Class of committed instruction
system.cpu1.op_class_0::SimdAlu                   988      0.01%     65.67% # Class of committed instruction
system.cpu1.op_class_0::SimdCmp                     0      0.00%     65.67% # Class of committed instruction
system.cpu1.op_class_0::SimdCvt                  1344      0.01%     65.68% # Class of committed instruction
system.cpu1.op_class_0::SimdMisc                  912      0.01%     65.69% # Class of committed instruction
system.cpu1.op_class_0::SimdMult                    0      0.00%     65.69% # Class of committed instruction
system.cpu1.op_class_0::SimdMultAcc                 0      0.00%     65.69% # Class of committed instruction
system.cpu1.op_class_0::SimdShift                 333      0.00%     65.69% # Class of committed instruction
system.cpu1.op_class_0::SimdShiftAcc                0      0.00%     65.69% # Class of committed instruction
system.cpu1.op_class_0::SimdDiv                     0      0.00%     65.69% # Class of committed instruction
system.cpu1.op_class_0::SimdSqrt                    0      0.00%     65.69% # Class of committed instruction
system.cpu1.op_class_0::SimdFloatAdd                0      0.00%     65.69% # Class of committed instruction
system.cpu1.op_class_0::SimdFloatAlu                0      0.00%     65.69% # Class of committed instruction
system.cpu1.op_class_0::SimdFloatCmp                0      0.00%     65.69% # Class of committed instruction
system.cpu1.op_class_0::SimdFloatCvt                0      0.00%     65.69% # Class of committed instruction
system.cpu1.op_class_0::SimdFloatDiv                0      0.00%     65.69% # Class of committed instruction
system.cpu1.op_class_0::SimdFloatMisc               0      0.00%     65.69% # Class of committed instruction
system.cpu1.op_class_0::SimdFloatMult               0      0.00%     65.69% # Class of committed instruction
system.cpu1.op_class_0::SimdFloatMultAcc            0      0.00%     65.69% # Class of committed instruction
system.cpu1.op_class_0::SimdFloatSqrt               0      0.00%     65.69% # Class of committed instruction
system.cpu1.op_class_0::SimdReduceAdd               0      0.00%     65.69% # Class of committed instruction
system.cpu1.op_class_0::SimdReduceAlu               0      0.00%     65.69% # Class of committed instruction
system.cpu1.op_class_0::SimdReduceCmp               0      0.00%     65.69% # Class of committed instruction
system.cpu1.op_class_0::SimdFloatReduceAdd            0      0.00%     65.69% # Class of committed instruction
system.cpu1.op_class_0::SimdFloatReduceCmp            0      0.00%     65.69% # Class of committed instruction
system.cpu1.op_class_0::SimdAes                     0      0.00%     65.69% # Class of committed instruction
system.cpu1.op_class_0::SimdAesMix                  0      0.00%     65.69% # Class of committed instruction
system.cpu1.op_class_0::SimdSha1Hash                0      0.00%     65.69% # Class of committed instruction
system.cpu1.op_class_0::SimdSha1Hash2               0      0.00%     65.69% # Class of committed instruction
system.cpu1.op_class_0::SimdSha256Hash              0      0.00%     65.69% # Class of committed instruction
system.cpu1.op_class_0::SimdSha256Hash2             0      0.00%     65.69% # Class of committed instruction
system.cpu1.op_class_0::SimdShaSigma2               0      0.00%     65.69% # Class of committed instruction
system.cpu1.op_class_0::SimdShaSigma3               0      0.00%     65.69% # Class of committed instruction
system.cpu1.op_class_0::SimdPredAlu                 0      0.00%     65.69% # Class of committed instruction
system.cpu1.op_class_0::MemRead               3833806     22.65%     88.34% # Class of committed instruction
system.cpu1.op_class_0::MemWrite              1911134     11.29%     99.63% # Class of committed instruction
system.cpu1.op_class_0::FloatMemRead            31918      0.19%     99.81% # Class of committed instruction
system.cpu1.op_class_0::FloatMemWrite           31396      0.19%    100.00% # Class of committed instruction
system.cpu1.op_class_0::IprAccess                   0      0.00%    100.00% # Class of committed instruction
system.cpu1.op_class_0::InstPrefetch                0      0.00%    100.00% # Class of committed instruction
system.cpu1.op_class_0::total                16927931                       # Class of committed instruction
system.cpu1.tickCycles                       22927891                       # Number of cycles that the object actually ticked
system.cpu1.workload.numSyscalls                   43                       # Number of system calls
system.membus.snoop_filter.hit_multi_requests            0                       # Number of requests hitting in the snoop filter with multiple (>1) holders of the requested data.
system.membus.snoop_filter.hit_multi_snoops            0                       # Number of snoops hitting in the snoop filter with multiple (>1) holders of the requested data.
system.membus.snoop_filter.hit_single_requests       109234                       # Number of requests hitting in the snoop filter with a single holder of the requested data.
system.membus.snoop_filter.hit_single_snoops            0                       # Number of snoops hitting in the snoop filter with a single holder of the requested data.
system.membus.snoop_filter.tot_requests        219492                       # Total number of requests made to the snoop filter.
system.membus.snoop_filter.tot_snoops               0                       # Total number of snoops made to the snoop filter.
system.tol2bus.snoop_filter.hit_multi_requests            1                       # Number of requests hitting in the snoop filter with multiple (>1) holders of the requested data.
system.tol2bus.snoop_filter.hit_multi_snoops            0                       # Number of snoops hitting in the snoop filter with multiple (>1) holders of the requested data.
system.tol2bus.snoop_filter.hit_single_requests       868783                       # Number of requests hitting in the snoop filter with a single holder of the requested data.
system.tol2bus.snoop_filter.hit_single_snoops         1468                       # Number of snoops hitting in the snoop filter with a single holder of the requested data.
system.tol2bus.snoop_filter.tot_requests      1737631                       # Total number of requests made to the snoop filter.
system.tol2bus.snoop_filter.tot_snoops           1468                       # Total number of snoops made to the snoop filter.
system.membus.trans_dist::ReadResp              91763                       # Transaction distribution
system.membus.trans_dist::WritebackDirty        22936                       # Transaction distribution
system.membus.trans_dist::CleanEvict            86298                       # Transaction distribution
system.membus.trans_dist::ReadExReq             18495                       # Transaction distribution
system.membus.trans_dist::ReadExResp            18495                       # Transaction distribution
system.membus.trans_dist::ReadSharedReq         91763                       # Transaction distribution
system.membus.pkt_count_system.l2.mem_side::system.mem_ctrls.port       329750                       # Packet count per connected master and slave (bytes)
system.membus.pkt_count_system.l2.mem_side::total       329750                       # Packet count per connected master and slave (bytes)
system.membus.pkt_count::total                 329750                       # Packet count per connected master and slave (bytes)
system.membus.pkt_size_system.l2.mem_side::system.mem_ctrls.port      8524416                       # Cumulative packet size per connected master and slave (bytes)
system.membus.pkt_size_system.l2.mem_side::total      8524416                       # Cumulative packet size per connected master and slave (bytes)
system.membus.pkt_size::total                 8524416                       # Cumulative packet size per connected master and slave (bytes)
system.membus.snoops                                0                       # Total snoops (count)
system.membus.snoopTraffic                          0                       # Total snoop traffic (bytes)
system.membus.snoop_fanout::samples            110258                       # Request fanout histogram
system.membus.snoop_fanout::mean                    0                       # Request fanout histogram
system.membus.snoop_fanout::stdev                   0                       # Request fanout histogram
system.membus.snoop_fanout::underflows              0      0.00%      0.00% # Request fanout histogram
system.membus.snoop_fanout::0                  110258    100.00%    100.00% # Request fanout histogram
system.membus.snoop_fanout::1                       0      0.00%    100.00% # Request fanout histogram
system.membus.snoop_fanout::overflows               0      0.00%    100.00% # Request fanout histogram
system.membus.snoop_fanout::min_value               0                       # Request fanout histogram
system.membus.snoop_fanout::max_value               0                       # Request fanout histogram
system.membus.snoop_fanout::total              110258                       # Request fanout histogram
system.membus.reqLayer4.occupancy           332006000                       # Layer occupancy (ticks)
system.membus.reqLayer4.utilization               2.4                       # Layer utilization (%)
system.membus.respLayer1.occupancy          591825250                       # Layer occupancy (ticks)
system.membus.respLayer1.utilization              4.2                       # Layer utilization (%)
system.membus.power_state.pwrStateResidencyTicks::UNDEFINED  13967620500                       # Cumulative time (in ticks) in various power states
system.voltage_domain.voltage                       1                       # Voltage in Volts
system.clk_domain.clock                          1000                       # Clock period in ticks
system.cpu0.icache.demand_hits::.cpu0.inst       489209                       # number of demand (read+write) hits
system.cpu0.icache.demand_hits::total          489209                       # number of demand (read+write) hits
system.cpu0.icache.overall_hits::.cpu0.inst       489209                       # number of overall hits
system.cpu0.icache.overall_hits::total         489209                       # number of overall hits
system.cpu0.icache.demand_misses::.cpu0.inst       452741                       # number of demand (read+write) misses
system.cpu0.icache.demand_misses::total        452741                       # number of demand (read+write) misses
system.cpu0.icache.overall_misses::.cpu0.inst       452741                       # number of overall misses
system.cpu0.icache.overall_misses::total       452741                       # number of overall misses
system.cpu0.icache.demand_miss_latency::.cpu0.inst  10130538000                       # number of demand (read+write) miss cycles
system.cpu0.icache.demand_miss_latency::total  10130538000                       # number of demand (read+write) miss cycles
system.cpu0.icache.overall_miss_latency::.cpu0.inst  10130538000                       # number of overall miss cycles
system.cpu0.icache.overall_miss_latency::total  10130538000                       # number of overall miss cycles
system.cpu0.icache.demand_accesses::.cpu0.inst       941950                       # number of demand (read+write) accesses
system.cpu0.icache.demand_accesses::total       941950                       # number of demand (read+write) accesses
system.cpu0.icache.overall_accesses::.cpu0.inst       941950                       # number of overall (read+write) accesses
system.cpu0.icache.overall_accesses::total       941950                       # number of overall (read+write) accesses
system.cpu0.icache.demand_miss_rate::.cpu0.inst     0.480642                       # miss rate for demand accesses
system.cpu0.icache.demand_miss_rate::total     0.480642                       # miss rate for demand accesses
system.cpu0.icache.overall_miss_rate::.cpu0.inst     0.480642                       # miss rate for overall accesses
system.cpu0.icache.overall_miss_rate::total     0.480642                       # miss rate for overall accesses
system.cpu0.icache.demand_avg_miss_latency::.cpu0.inst 22376.011892                       # average overall miss latency
system.cpu0.icache.demand_avg_miss_latency::total 22376.011892                       # average overall miss latency
system.cpu0.icache.overall_avg_miss_latency::.cpu0.inst 22376.011892                       # average overall miss latency
system.cpu0.icache.overall_avg_miss_latency::total 22376.011892                       # average overall miss latency
system.cpu0.icache.blocked_cycles::no_mshrs            0                       # number of cycles access was blocked
system.cpu0.icache.blocked_cycles::no_targets            0                       # number of cycles access was blocked
system.cpu0.icache.blocked::no_mshrs                0                       # number of cycles access was blocked
system.cpu0.icache.blocked::no_targets              0                       # number of cycles access was blocked
system.cpu0.icache.avg_blocked_cycles::no_mshrs          nan                       # average number of cycles each access was blocked
system.cpu0.icache.avg_blocked_cycles::no_targets          nan                       # average number of cycles each access was blocked
system.cpu0.icache.writebacks::.writebacks       452724                       # number of writebacks
system.cpu0.icache.writebacks::total           452724                       # number of writebacks
system.cpu0.icache.demand_mshr_misses::.cpu0.inst       452741                       # number of demand (read+write) MSHR misses
system.cpu0.icache.demand_mshr_misses::total       452741                       # number of demand (read+write) MSHR misses
system.cpu0.icache.overall_mshr_misses::.cpu0.inst       452741                       # number of overall MSHR misses
system.cpu0.icache.overall_mshr_misses::total       452741                       # number of overall MSHR misses
system.cpu0.icache.demand_mshr_miss_latency::.cpu0.inst   9677798000                       # number of demand (read+write) MSHR miss cycles
system.cpu0.icache.demand_mshr_miss_latency::total   9677798000                       # number of demand (read+write) MSHR miss cycles
system.cpu0.icache.overall_mshr_miss_latency::.cpu0.inst   9677798000                       # number of overall MSHR miss cycles
system.cpu0.icache.overall_mshr_miss_latency::total   9677798000                       # number of overall MSHR miss cycles
system.cpu0.icache.demand_mshr_miss_rate::.cpu0.inst     0.480642                       # mshr miss rate for demand accesses
system.cpu0.icache.demand_mshr_miss_rate::total     0.480642                       # mshr miss rate for demand accesses
system.cpu0.icache.overall_mshr_miss_rate::.cpu0.inst     0.480642                       # mshr miss rate for overall accesses
system.cpu0.icache.overall_mshr_miss_rate::total     0.480642                       # mshr miss rate for overall accesses
system.cpu0.icache.demand_avg_mshr_miss_latency::.cpu0.inst 21376.014101                       # average overall mshr miss latency
system.cpu0.icache.demand_avg_mshr_miss_latency::total 21376.014101                       # average overall mshr miss latency
system.cpu0.icache.overall_avg_mshr_miss_latency::.cpu0.inst 21376.014101                       # average overall mshr miss latency
system.cpu0.icache.overall_avg_mshr_miss_latency::total 21376.014101                       # average overall mshr miss latency
system.cpu0.icache.replacements                452724                       # number of replacements
system.cpu0.icache.ReadReq_hits::.cpu0.inst       489209                       # number of ReadReq hits
system.cpu0.icache.ReadReq_hits::total         489209                       # number of ReadReq hits
system.cpu0.icache.ReadReq_misses::.cpu0.inst       452741                       # number of ReadReq misses
system.cpu0.icache.ReadReq_misses::total       452741                       # number of ReadReq misses
system.cpu0.icache.ReadReq_miss_latency::.cpu0.inst  10130538000                       # number of ReadReq miss cycles
system.cpu0.icache.ReadReq_miss_latency::total  10130538000                       # number of ReadReq miss cycles
system.cpu0.icache.ReadReq_accesses::.cpu0.inst       941950                       # number of ReadReq accesses(hits+misses)
system.cpu0.icache.ReadReq_accesses::total       941950                       # number of ReadReq accesses(hits+misses)
system.cpu0.icache.ReadReq_miss_rate::.cpu0.inst     0.480642                       # miss rate for ReadReq accesses
system.cpu0.icache.ReadReq_miss_rate::total     0.480642                       # miss rate for ReadReq accesses
system.cpu0.icache.ReadReq_avg_miss_latency::.cpu0.inst 22376.011892                       # average ReadReq miss latency
system.cpu0.icache.ReadReq_avg_miss_latency::total 22376.011892                       # average ReadReq miss latency
system.cpu0.icache.ReadReq_mshr_misses::.cpu0.inst       452741                       # number of ReadReq MSHR misses
system.cpu0.icache.ReadReq_mshr_misses::total       452741                       # number of ReadReq MSHR misses
system.cpu0.icache.ReadReq_mshr_miss_latency::.cpu0.inst   9677798000                       # number of ReadReq MSHR miss cycles
system.cpu0.icache.ReadReq_mshr_miss_latency::total   9677798000                       # number of ReadReq MSHR miss cycles
system.cpu0.icache.ReadReq_mshr_miss_rate::.cpu0.inst     0.480642                       # mshr miss rate for ReadReq accesses
system.cpu0.icache.ReadReq_mshr_miss_rate::total     0.480642                       # mshr miss rate for ReadReq accesses
system.cpu0.icache.ReadReq_avg_mshr_miss_latency::.cpu0.inst 21376.014101                       # average ReadReq mshr miss latency
system.cpu0.icache.ReadReq_avg_mshr_miss_latency::total 21376.014101                       # average ReadReq mshr miss latency
system.cpu0.icache.power_state.pwrStateResidencyTicks::UNDEFINED  13967620500                       # Cumulative time (in ticks) in various power states
system.cpu0.icache.tags.tagsinuse           15.999019                       # Cycle average of tags in use
system.cpu0.icache.tags.total_refs             941949                       # Total number of references to valid blocks.
system.cpu0.icache.tags.sampled_refs           452740                       # Sample count of references to valid blocks.
system.cpu0.icache.tags.avg_refs             2.080552                       # Average number of references to valid blocks.
system.cpu0.icache.tags.warmup_cycle            87500                       # Cycle when the warmup percentage was hit.
system.cpu0.icache.tags.occ_blocks::.cpu0.inst    15.999019                       # Average occupied blocks per requestor
system.cpu0.icache.tags.occ_percent::.cpu0.inst     0.999939                       # Average percentage of cache occupancy
system.cpu0.icache.tags.occ_percent::total     0.999939                       # Average percentage of cache occupancy
system.cpu0.icache.tags.occ_task_id_blocks::1024           16                       # Occupied blocks per task id
system.cpu0.icache.tags.age_task_id_blocks_1024::0           16                       # Occupied blocks per task id
system.cpu0.icache.tags.occ_task_id_percent::1024            1                       # Percentage of cache occupancy per task id
system.cpu0.icache.tags.tag_accesses          7988340                       # Number of tag accesses
system.cpu0.icache.tags.data_accesses         7988340                       # Number of data accesses
system.cpu0.icache.tags.power_state.pwrStateResidencyTicks::UNDEFINED  13967620500                       # Cumulative time (in ticks) in various power states
system.cpu0.dtb.walker.power_state.pwrStateResidencyTicks::UNDEFINED  13967620500                       # Cumulative time (in ticks) in various power states
system.cpu0.interrupts.clk_domain.clock          8000                       # Clock period in ticks
system.cpu0.itb_walker_cache.blocked_cycles::no_mshrs            0                       # number of cycles access was blocked
system.cpu0.itb_walker_cache.blocked_cycles::no_targets            0                       # number of cycles access was blocked
system.cpu0.itb_walker_cache.blocked::no_mshrs            0                       # number of cycles access was blocked
system.cpu0.itb_walker_cache.blocked::no_targets            0                       # number of cycles access was blocked
system.cpu0.itb_walker_cache.avg_blocked_cycles::no_mshrs          nan                       # average number of cycles each access was blocked
system.cpu0.itb_walker_cache.avg_blocked_cycles::no_targets          nan                       # average number of cycles each access was blocked
system.cpu0.itb_walker_cache.replacements            0                       # number of replacements
system.cpu0.itb_walker_cache.power_state.pwrStateResidencyTicks::UNDEFINED  13967620500                       # Cumulative time (in ticks) in various power states
system.cpu0.itb_walker_cache.tags.tagsinuse            0                       # Cycle average of tags in use
system.cpu0.itb_walker_cache.tags.total_refs            0                       # Total number of references to valid blocks.
system.cpu0.itb_walker_cache.tags.sampled_refs            0                       # Sample count of references to valid blocks.
system.cpu0.itb_walker_cache.tags.avg_refs          nan                       # Average number of references to valid blocks.
system.cpu0.itb_walker_cache.tags.warmup_cycle            0                       # Cycle when the warmup percentage was hit.
system.cpu0.itb_walker_cache.tags.tag_accesses            0                       # Number of tag accesses
system.cpu0.itb_walker_cache.tags.data_accesses            0                       # Number of data accesses
system.cpu0.itb_walker_cache.tags.power_state.pwrStateResidencyTicks::UNDEFINED  13967620500                       # Cumulative time (in ticks) in various power states
system.cpu0.dtb_walker_cache.blocked_cycles::no_mshrs            0                       # number of cycles access was blocked
system.cpu0.dtb_walker_cache.blocked_cycles::no_targets            0                       # number of cycles access was blocked
system.cpu0.dtb_walker_cache.blocked::no_mshrs            0                       # number of cycles access was blocked
system.cpu0.dtb_walker_cache.blocked::no_targets            0                       # number of cycles access was blocked
system.cpu0.dtb_walker_cache.avg_blocked_cycles::no_mshrs          nan                       # average number of cycles each access was blocked
system.cpu0.dtb_walker_cache.avg_blocked_cycles::no_targets          nan                       # average number of cycles each access was blocked
system.cpu0.dtb_walker_cache.replacements            0                       # number of replacements
system.cpu0.dtb_walker_cache.power_state.pwrStateResidencyTicks::UNDEFINED  13967620500                       # Cumulative time (in ticks) in various power states
system.cpu0.dtb_walker_cache.tags.tagsinuse            0                       # Cycle average of tags in use
system.cpu0.dtb_walker_cache.tags.total_refs            0                       # Total number of references to valid blocks.
system.cpu0.dtb_walker_cache.tags.sampled_refs            0                       # Sample count of references to valid blocks.
system.cpu0.dtb_walker_cache.tags.avg_refs          nan                       # Average number of references to valid blocks.
system.cpu0.dtb_walker_cache.tags.warmup_cycle            0                       # Cycle when the warmup percentage was hit.
system.cpu0.dtb_walker_cache.tags.tag_accesses            0                       # Number of tag accesses
system.cpu0.dtb_walker_cache.tags.data_accesses            0                       # Number of data accesses
system.cpu0.dtb_walker_cache.tags.power_state.pwrStateResidencyTicks::UNDEFINED  13967620500                       # Cumulative time (in ticks) in various power states
system.cpu0.dcache.demand_hits::.cpu0.data       952515                       # number of demand (read+write) hits
system.cpu0.dcache.demand_hits::total          952515                       # number of demand (read+write) hits
system.cpu0.dcache.overall_hits::.cpu0.data       952515                       # number of overall hits
system.cpu0.dcache.overall_hits::total         952515                       # number of overall hits
system.cpu0.dcache.demand_misses::.cpu0.data       205423                       # number of demand (read+write) misses
system.cpu0.dcache.demand_misses::total        205423                       # number of demand (read+write) misses
system.cpu0.dcache.overall_misses::.cpu0.data       205423                       # number of overall misses
system.cpu0.dcache.overall_misses::total       205423                       # number of overall misses
system.cpu0.dcache.demand_miss_latency::.cpu0.data   5587326000                       # number of demand (read+write) miss cycles
system.cpu0.dcache.demand_miss_latency::total   5587326000                       # number of demand (read+write) miss cycles
system.cpu0.dcache.overall_miss_latency::.cpu0.data   5587326000                       # number of overall miss cycles
system.cpu0.dcache.overall_miss_latency::total   5587326000                       # number of overall miss cycles
system.cpu0.dcache.demand_accesses::.cpu0.data      1157938                       # number of demand (read+write) accesses
system.cpu0.dcache.demand_accesses::total      1157938                       # number of demand (read+write) accesses
system.cpu0.dcache.overall_accesses::.cpu0.data      1157938                       # number of overall (read+write) accesses
system.cpu0.dcache.overall_accesses::total      1157938                       # number of overall (read+write) accesses
system.cpu0.dcache.demand_miss_rate::.cpu0.data     0.177404                       # miss rate for demand accesses
system.cpu0.dcache.demand_miss_rate::total     0.177404                       # miss rate for demand accesses
system.cpu0.dcache.overall_miss_rate::.cpu0.data     0.177404                       # miss rate for overall accesses
system.cpu0.dcache.overall_miss_rate::total     0.177404                       # miss rate for overall accesses
system.cpu0.dcache.demand_avg_miss_latency::.cpu0.data 27199.125706                       # average overall miss latency
system.cpu0.dcache.demand_avg_miss_latency::total 27199.125706                       # average overall miss latency
system.cpu0.dcache.overall_avg_miss_latency::.cpu0.data 27199.125706                       # average overall miss latency
system.cpu0.dcache.overall_avg_miss_latency::total 27199.125706                       # average overall miss latency
system.cpu0.dcache.blocked_cycles::no_mshrs            0                       # number of cycles access was blocked
system.cpu0.dcache.blocked_cycles::no_targets            0                       # number of cycles access was blocked
system.cpu0.dcache.blocked::no_mshrs                0                       # number of cycles access was blocked
system.cpu0.dcache.blocked::no_targets              0                       # number of cycles access was blocked
system.cpu0.dcache.avg_blocked_cycles::no_mshrs          nan                       # average number of cycles each access was blocked
system.cpu0.dcache.avg_blocked_cycles::no_targets          nan                       # average number of cycles each access was blocked
system.cpu0.dcache.writebacks::.writebacks       110715                       # number of writebacks
system.cpu0.dcache.writebacks::total           110715                       # number of writebacks
system.cpu0.dcache.demand_mshr_hits::.cpu0.data        24540                       # number of demand (read+write) MSHR hits
system.cpu0.dcache.demand_mshr_hits::total        24540                       # number of demand (read+write) MSHR hits
system.cpu0.dcache.overall_mshr_hits::.cpu0.data        24540                       # number of overall MSHR hits
system.cpu0.dcache.overall_mshr_hits::total        24540                       # number of overall MSHR hits
system.cpu0.dcache.demand_mshr_misses::.cpu0.data       180883                       # number of demand (read+write) MSHR misses
system.cpu0.dcache.demand_mshr_misses::total       180883                       # number of demand (read+write) MSHR misses
system.cpu0.dcache.overall_mshr_misses::.cpu0.data       180883                       # number of overall MSHR misses
system.cpu0.dcache.overall_mshr_misses::total       180883                       # number of overall MSHR misses
system.cpu0.dcache.demand_mshr_miss_latency::.cpu0.data   4632749500                       # number of demand (read+write) MSHR miss cycles
system.cpu0.dcache.demand_mshr_miss_latency::total   4632749500                       # number of demand (read+write) MSHR miss cycles
system.cpu0.dcache.overall_mshr_miss_latency::.cpu0.data   4632749500                       # number of overall MSHR miss cycles
system.cpu0.dcache.overall_mshr_miss_latency::total   4632749500                       # number of overall MSHR miss cycles
system.cpu0.dcache.demand_mshr_miss_rate::.cpu0.data     0.156211                       # mshr miss rate for demand accesses
system.cpu0.dcache.demand_mshr_miss_rate::total     0.156211                       # mshr miss rate for demand accesses
system.cpu0.dcache.overall_mshr_miss_rate::.cpu0.data     0.156211                       # mshr miss rate for overall accesses
system.cpu0.dcache.overall_mshr_miss_rate::total     0.156211                       # mshr miss rate for overall accesses
system.cpu0.dcache.demand_avg_mshr_miss_latency::.cpu0.data 25611.856836                       # average overall mshr miss latency
system.cpu0.dcache.demand_avg_mshr_miss_latency::total 25611.856836                       # average overall mshr miss latency
system.cpu0.dcache.overall_avg_mshr_miss_latency::.cpu0.data 25611.856836                       # average overall mshr miss latency
system.cpu0.dcache.overall_avg_mshr_miss_latency::total 25611.856836                       # average overall mshr miss latency
system.cpu0.dcache.replacements                180867                       # number of replacements
system.cpu0.dcache.ReadReq_hits::.cpu0.data       555674                       # number of ReadReq hits
system.cpu0.dcache.ReadReq_hits::total         555674                       # number of ReadReq hits
system.cpu0.dcache.ReadReq_misses::.cpu0.data       132825                       # number of ReadReq misses
system.cpu0.dcache.ReadReq_misses::total       132825                       # number of ReadReq misses
system.cpu0.dcache.ReadReq_miss_latency::.cpu0.data   3460429000                       # number of ReadReq miss cycles
system.cpu0.dcache.ReadReq_miss_latency::total   3460429000                       # number of ReadReq miss cycles
system.cpu0.dcache.ReadReq_accesses::.cpu0.data       688499                       # number of ReadReq accesses(hits+misses)
system.cpu0.dcache.ReadReq_accesses::total       688499                       # number of ReadReq accesses(hits+misses)
system.cpu0.dcache.ReadReq_miss_rate::.cpu0.data     0.192920                       # miss rate for ReadReq accesses
system.cpu0.dcache.ReadReq_miss_rate::total     0.192920                       # miss rate for ReadReq accesses
system.cpu0.dcache.ReadReq_avg_miss_latency::.cpu0.data 26052.542819                       # average ReadReq miss latency
system.cpu0.dcache.ReadReq_avg_miss_latency::total 26052.542819                       # average ReadReq miss latency
system.cpu0.dcache.ReadReq_mshr_hits::.cpu0.data         5180                       # number of ReadReq MSHR hits
system.cpu0.dcache.ReadReq_mshr_hits::total         5180                       # number of ReadReq MSHR hits
system.cpu0.dcache.ReadReq_mshr_misses::.cpu0.data       127645                       # number of ReadReq MSHR misses
system.cpu0.dcache.ReadReq_mshr_misses::total       127645                       # number of ReadReq MSHR misses
system.cpu0.dcache.ReadReq_mshr_miss_latency::.cpu0.data   3210795500                       # number of ReadReq MSHR miss cycles
system.cpu0.dcache.ReadReq_mshr_miss_latency::total   3210795500                       # number of ReadReq MSHR miss cycles
system.cpu0.dcache.ReadReq_mshr_miss_rate::.cpu0.data     0.185396                       # mshr miss rate for ReadReq accesses
system.cpu0.dcache.ReadReq_mshr_miss_rate::total     0.185396                       # mshr miss rate for ReadReq accesses
system.cpu0.dcache.ReadReq_avg_mshr_miss_latency::.cpu0.data 25154.103177                       # average ReadReq mshr miss latency
system.cpu0.dcache.ReadReq_avg_mshr_miss_latency::total 25154.103177                       # average ReadReq mshr miss latency
system.cpu0.dcache.WriteReq_hits::.cpu0.data       396841                       # number of WriteReq hits
system.cpu0.dcache.WriteReq_hits::total        396841                       # number of WriteReq hits
system.cpu0.dcache.WriteReq_misses::.cpu0.data        72598                       # number of WriteReq misses
system.cpu0.dcache.WriteReq_misses::total        72598                       # number of WriteReq misses
system.cpu0.dcache.WriteReq_miss_latency::.cpu0.data   2126897000                       # number of WriteReq miss cycles
system.cpu0.dcache.WriteReq_miss_latency::total   2126897000                       # number of WriteReq miss cycles
system.cpu0.dcache.WriteReq_accesses::.cpu0.data       469439                       # number of WriteReq accesses(hits+misses)
system.cpu0.dcache.WriteReq_accesses::total       469439                       # number of WriteReq accesses(hits+misses)
system.cpu0.dcache.WriteReq_miss_rate::.cpu0.data     0.154648                       # miss rate for WriteReq accesses
system.cpu0.dcache.WriteReq_miss_rate::total     0.154648                       # miss rate for WriteReq accesses
system.cpu0.dcache.WriteReq_avg_miss_latency::.cpu0.data 29296.909006                       # average WriteReq miss latency
system.cpu0.dcache.WriteReq_avg_miss_latency::total 29296.909006                       # average WriteReq miss latency
system.cpu0.dcache.WriteReq_mshr_hits::.cpu0.data        19360                       # number of WriteReq MSHR hits
system.cpu0.dcache.WriteReq_mshr_hits::total        19360                       # number of WriteReq MSHR hits
system.cpu0.dcache.WriteReq_mshr_misses::.cpu0.data        53238                       # number of WriteReq MSHR misses
system.cpu0.dcache.WriteReq_mshr_misses::total        53238                       # number of WriteReq MSHR misses
system.cpu0.dcache.WriteReq_mshr_miss_latency::.cpu0.data   1421954000                       # number of WriteReq MSHR miss cycles
system.cpu0.dcache.WriteReq_mshr_miss_latency::total   1421954000                       # number of WriteReq MSHR miss cycles
system.cpu0.dcache.WriteReq_mshr_miss_rate::.cpu0.data     0.113408                       # mshr miss rate for WriteReq accesses
system.cpu0.dcache.WriteReq_mshr_miss_rate::total     0.113408                       # mshr miss rate for WriteReq accesses
system.cpu0.dcache.WriteReq_avg_mshr_miss_latency::.cpu0.data 26709.380518                       # average WriteReq mshr miss latency
system.cpu0.dcache.WriteReq_avg_mshr_miss_latency::total 26709.380518                       # average WriteReq mshr miss latency
system.cpu0.dcache.power_state.pwrStateResidencyTicks::UNDEFINED  13967620500                       # Cumulative time (in ticks) in various power states
system.cpu0.dcache.tags.tagsinuse           15.999077                       # Cycle average of tags in use
system.cpu0.dcache.tags.total_refs            1133398                       # Total number of references to valid blocks.
system.cpu0.dcache.tags.sampled_refs           180883                       # Sample count of references to valid blocks.
system.cpu0.dcache.tags.avg_refs             6.265918                       # Average number of references to valid blocks.
system.cpu0.dcache.tags.warmup_cycle           178500                       # Cycle when the warmup percentage was hit.
system.cpu0.dcache.tags.occ_blocks::.cpu0.data    15.999077                       # Average occupied blocks per requestor
system.cpu0.dcache.tags.occ_percent::.cpu0.data     0.999942                       # Average percentage of cache occupancy
system.cpu0.dcache.tags.occ_percent::total     0.999942                       # Average percentage of cache occupancy
system.cpu0.dcache.tags.occ_task_id_blocks::1024           16                       # Occupied blocks per task id
system.cpu0.dcache.tags.age_task_id_blocks_1024::0           16                       # Occupied blocks per task id
system.cpu0.dcache.tags.occ_task_id_percent::1024            1                       # Percentage of cache occupancy per task id
system.cpu0.dcache.tags.tag_accesses          9444387                       # Number of tag accesses
system.cpu0.dcache.tags.data_accesses         9444387                       # Number of data accesses
system.cpu0.dcache.tags.power_state.pwrStateResidencyTicks::UNDEFINED  13967620500                       # Cumulative time (in ticks) in various power states
system.cpu0.power_state.pwrStateResidencyTicks::ON  13967620500                       # Cumulative time (in ticks) in various power states
system.cpu0.itb.walker.power_state.pwrStateResidencyTicks::UNDEFINED  13967620500                       # Cumulative time (in ticks) in various power states
system.cpu1.icache.demand_hits::.cpu1.inst      2429355                       # number of demand (read+write) hits
system.cpu1.icache.demand_hits::total         2429355                       # number of demand (read+write) hits
system.cpu1.icache.overall_hits::.cpu1.inst      2429355                       # number of overall hits
system.cpu1.icache.overall_hits::total        2429355                       # number of overall hits
system.cpu1.icache.demand_misses::.cpu1.inst        13856                       # number of demand (read+write) misses
system.cpu1.icache.demand_misses::total         13856                       # number of demand (read+write) misses
system.cpu1.icache.overall_misses::.cpu1.inst        13856                       # number of overall misses
system.cpu1.icache.overall_misses::total        13856                       # number of overall misses
system.cpu1.icache.demand_miss_latency::.cpu1.inst    315287000                       # number of demand (read+write) miss cycles
system.cpu1.icache.demand_miss_latency::total    315287000                       # number of demand (read+write) miss cycles
system.cpu1.icache.overall_miss_latency::.cpu1.inst    315287000                       # number of overall miss cycles
system.cpu1.icache.overall_miss_latency::total    315287000                       # number of overall miss cycles
system.cpu1.icache.demand_accesses::.cpu1.inst      2443211                       # number of demand (read+write) accesses
system.cpu1.icache.demand_accesses::total      2443211                       # number of demand (read+write) accesses
system.cpu1.icache.overall_accesses::.cpu1.inst      2443211                       # number of overall (read+write) accesses
system.cpu1.icache.overall_accesses::total      2443211                       # number of overall (read+write) accesses
system.cpu1.icache.demand_miss_rate::.cpu1.inst     0.005671                       # miss rate for demand accesses
system.cpu1.icache.demand_miss_rate::total     0.005671                       # miss rate for demand accesses
system.cpu1.icache.overall_miss_rate::.cpu1.inst     0.005671                       # miss rate for overall accesses
system.cpu1.icache.overall_miss_rate::total     0.005671                       # miss rate for overall accesses
system.cpu1.icache.demand_avg_miss_latency::.cpu1.inst 22754.546767                       # average overall miss latency
system.cpu1.icache.demand_avg_miss_latency::total 22754.546767                       # average overall miss latency
system.cpu1.icache.overall_avg_miss_latency::.cpu1.inst 22754.546767                       # average overall miss latency
system.cpu1.icache.overall_avg_miss_latency::total 22754.546767                       # average overall miss latency
system.cpu1.icache.blocked_cycles::no_mshrs            0                       # number of cycles access was blocked
system.cpu1.icache.blocked_cycles::no_targets            0                       # number of cycles access was blocked
system.cpu1.icache.blocked::no_mshrs                0                       # number of cycles access was blocked
system.cpu1.icache.blocked::no_targets              0                       # number of cycles access was blocked
system.cpu1.icache.avg_blocked_cycles::no_mshrs          nan                       # average number of cycles each access was blocked
system.cpu1.icache.avg_blocked_cycles::no_targets          nan                       # average number of cycles each access was blocked
system.cpu1.icache.writebacks::.writebacks        13840                       # number of writebacks
system.cpu1.icache.writebacks::total            13840                       # number of writebacks
system.cpu1.icache.demand_mshr_misses::.cpu1.inst        13856                       # number of demand (read+write) MSHR misses
system.cpu1.icache.demand_mshr_misses::total        13856                       # number of demand (read+write) MSHR misses
system.cpu1.icache.overall_mshr_misses::.cpu1.inst        13856                       # number of overall MSHR misses
system.cpu1.icache.overall_mshr_misses::total        13856                       # number of overall MSHR misses
system.cpu1.icache.demand_mshr_miss_latency::.cpu1.inst    301431000                       # number of demand (read+write) MSHR miss cycles
system.cpu1.icache.demand_mshr_miss_latency::total    301431000                       # number of demand (read+write) MSHR miss cycles
system.cpu1.icache.overall_mshr_miss_latency::.cpu1.inst    301431000                       # number of overall MSHR miss cycles
system.cpu1.icache.overall_mshr_miss_latency::total    301431000                       # number of overall MSHR miss cycles
system.cpu1.icache.demand_mshr_miss_rate::.cpu1.inst     0.005671                       # mshr miss rate for demand accesses
system.cpu1.icache.demand_mshr_miss_rate::total     0.005671                       # mshr miss rate for demand accesses
system.cpu1.icache.overall_mshr_miss_rate::.cpu1.inst     0.005671                       # mshr miss rate for overall accesses
system.cpu1.icache.overall_mshr_miss_rate::total     0.005671                       # mshr miss rate for overall accesses
system.cpu1.icache.demand_avg_mshr_miss_latency::.cpu1.inst 21754.546767                       # average overall mshr miss latency
system.cpu1.icache.demand_avg_mshr_miss_latency::total 21754.546767                       # average overall mshr miss latency
system.cpu1.icache.overall_avg_mshr_miss_latency::.cpu1.inst 21754.546767                       # average overall mshr miss latency
system.cpu1.icache.overall_avg_mshr_miss_latency::total 21754.546767                       # average overall mshr miss latency
system.cpu1.icache.replacements                 13840                       # number of replacements
system.cpu1.icache.ReadReq_hits::.cpu1.inst      2429355                       # number of ReadReq hits
system.cpu1.icache.ReadReq_hits::total        2429355                       # number of ReadReq hits
system.cpu1.icache.ReadReq_misses::.cpu1.inst        13856                       # number of ReadReq misses
system.cpu1.icache.ReadReq_misses::total        13856                       # number of ReadReq misses
system.cpu1.icache.ReadReq_miss_latency::.cpu1.inst    315287000                       # number of ReadReq miss cycles
system.cpu1.icache.ReadReq_miss_latency::total    315287000                       # number of ReadReq miss cycles
system.cpu1.icache.ReadReq_accesses::.cpu1.inst      2443211                       # number of ReadReq accesses(hits+misses)
system.cpu1.icache.ReadReq_accesses::total      2443211                       # number of ReadReq accesses(hits+misses)
system.cpu1.icache.ReadReq_miss_rate::.cpu1.inst     0.005671                       # miss rate for ReadReq accesses
system.cpu1.icache.ReadReq_miss_rate::total     0.005671                       # miss rate for ReadReq accesses
system.cpu1.icache.ReadReq_avg_miss_latency::.cpu1.inst 22754.546767                       # average ReadReq miss latency
system.cpu1.icache.ReadReq_avg_miss_latency::total 22754.546767                       # average ReadReq miss latency
system.cpu1.icache.ReadReq_mshr_misses::.cpu1.inst        13856                       # number of ReadReq MSHR misses
system.cpu1.icache.ReadReq_mshr_misses::total        13856                       # number of ReadReq MSHR misses
system.cpu1.icache.ReadReq_mshr_miss_latency::.cpu1.inst    301431000                       # number of ReadReq MSHR miss cycles
system.cpu1.icache.ReadReq_mshr_miss_latency::total    301431000                       # number of ReadReq MSHR miss cycles
system.cpu1.icache.ReadReq_mshr_miss_rate::.cpu1.inst     0.005671                       # mshr miss rate for ReadReq accesses
system.cpu1.icache.ReadReq_mshr_miss_rate::total     0.005671                       # mshr miss rate for ReadReq accesses
system.cpu1.icache.ReadReq_avg_mshr_miss_latency::.cpu1.inst 21754.546767                       # average ReadReq mshr miss latency
system.cpu1.icache.ReadReq_avg_mshr_miss_latency::total 21754.546767                       # average ReadReq mshr miss latency
system.cpu1.icache.power_state.pwrStateResidencyTicks::UNDEFINED  13967620500                       # Cumulative time (in ticks) in various power states
system.cpu1.icache.tags.tagsinuse           15.998974                       # Cycle average of tags in use
system.cpu1.icache.tags.total_refs            2443211                       # Total number of references to valid blocks.
system.cpu1.icache.tags.sampled_refs            13856                       # Sample count of references to valid blocks.
system.cpu1.icache.tags.avg_refs           176.328738                       # Average number of references to valid blocks.
system.cpu1.icache.tags.warmup_cycle            92500                       # Cycle when the warmup percentage was hit.
system.cpu1.icache.tags.occ_blocks::.cpu1.inst    15.998974                       # Average occupied blocks per requestor
system.cpu1.icache.tags.occ_percent::.cpu1.inst     0.999936                       # Average percentage of cache occupancy
system.cpu1.icache.tags.occ_percent::total     0.999936                       # Average percentage of cache occupancy
system.cpu1.icache.tags.occ_task_id_blocks::1024           16                       # Occupied blocks per task id
system.cpu1.icache.tags.age_task_id_blocks_1024::1           16                       # Occupied blocks per task id
system.cpu1.icache.tags.occ_task_id_percent::1024            1                       # Percentage of cache occupancy per task id
system.cpu1.icache.tags.tag_accesses         19559544                       # Number of tag accesses
system.cpu1.icache.tags.data_accesses        19559544                       # Number of data accesses
system.cpu1.icache.tags.power_state.pwrStateResidencyTicks::UNDEFINED  13967620500                       # Cumulative time (in ticks) in various power states
system.cpu1.dtb.walker.power_state.pwrStateResidencyTicks::UNDEFINED  13967620500                       # Cumulative time (in ticks) in various power states
system.cpu1.interrupts.clk_domain.clock          8000                       # Clock period in ticks
system.cpu1.itb_walker_cache.blocked_cycles::no_mshrs            0                       # number of cycles access was blocked
system.cpu1.itb_walker_cache.blocked_cycles::no_targets            0                       # number of cycles access was blocked
system.cpu1.itb_walker_cache.blocked::no_mshrs            0                       # number of cycles access was blocked
system.cpu1.itb_walker_cache.blocked::no_targets            0                       # number of cycles access was blocked
system.cpu1.itb_walker_cache.avg_blocked_cycles::no_mshrs          nan                       # average number of cycles each access was blocked
system.cpu1.itb_walker_cache.avg_blocked_cycles::no_targets          nan                       # average number of cycles each access was blocked
system.cpu1.itb_walker_cache.replacements            0                       # number of replacements
system.cpu1.itb_walker_cache.power_state.pwrStateResidencyTicks::UNDEFINED  13967620500                       # Cumulative time (in ticks) in various power states
system.cpu1.itb_walker_cache.tags.tagsinuse            0                       # Cycle average of tags in use
system.cpu1.itb_walker_cache.tags.total_refs            0                       # Total number of references to valid blocks.
system.cpu1.itb_walker_cache.tags.sampled_refs            0                       # Sample count of references to valid blocks.
system.cpu1.itb_walker_cache.tags.avg_refs          nan                       # Average number of references to valid blocks.
system.cpu1.itb_walker_cache.tags.warmup_cycle            0                       # Cycle when the warmup percentage was hit.
system.cpu1.itb_walker_cache.tags.tag_accesses            0                       # Number of tag accesses
system.cpu1.itb_walker_cache.tags.data_accesses            0                       # Number of data accesses
system.cpu1.itb_walker_cache.tags.power_state.pwrStateResidencyTicks::UNDEFINED  13967620500                       # Cumulative time (in ticks) in various power states
system.cpu1.dtb_walker_cache.blocked_cycles::no_mshrs            0                       # number of cycles access was blocked
system.cpu1.dtb_walker_cache.blocked_cycles::no_targets            0                       # number of cycles access was blocked
system.cpu1.dtb_walker_cache.blocked::no_mshrs            0                       # number of cycles access was blocked
system.cpu1.dtb_walker_cache.blocked::no_targets            0                       # number of cycles access was blocked
system.cpu1.dtb_walker_cache.avg_blocked_cycles::no_mshrs          nan                       # average number of cycles each access was blocked
system.cpu1.dtb_walker_cache.avg_blocked_cycles::no_targets          nan                       # average number of cycles each access was blocked
system.cpu1.dtb_walker_cache.replacements            0                       # number of replacements
system.cpu1.dtb_walker_cache.power_state.pwrStateResidencyTicks::UNDEFINED  13967620500                       # Cumulative time (in ticks) in various power states
system.cpu1.dtb_walker_cache.tags.tagsinuse            0                       # Cycle average of tags in use
system.cpu1.dtb_walker_cache.tags.total_refs            0                       # Total number of references to valid blocks.
system.cpu1.dtb_walker_cache.tags.sampled_refs            0                       # Sample count of references to valid blocks.
system.cpu1.dtb_walker_cache.tags.avg_refs          nan                       # Average number of references to valid blocks.
system.cpu1.dtb_walker_cache.tags.warmup_cycle            0                       # Cycle when the warmup percentage was hit.
system.cpu1.dtb_walker_cache.tags.tag_accesses            0                       # Number of tag accesses
system.cpu1.dtb_walker_cache.tags.data_accesses            0                       # Number of data accesses
system.cpu1.dtb_walker_cache.tags.power_state.pwrStateResidencyTicks::UNDEFINED  13967620500                       # Cumulative time (in ticks) in various power states
system.cpu1.dcache.demand_hits::.cpu1.data      5861368                       # number of demand (read+write) hits
system.cpu1.dcache.demand_hits::total         5861368                       # number of demand (read+write) hits
system.cpu1.dcache.overall_hits::.cpu1.data      5861654                       # number of overall hits
system.cpu1.dcache.overall_hits::total        5861654                       # number of overall hits
system.cpu1.dcache.demand_misses::.cpu1.data       226578                       # number of demand (read+write) misses
system.cpu1.dcache.demand_misses::total        226578                       # number of demand (read+write) misses
system.cpu1.dcache.overall_misses::.cpu1.data       233683                       # number of overall misses
system.cpu1.dcache.overall_misses::total       233683                       # number of overall misses
system.cpu1.dcache.demand_miss_latency::.cpu1.data   4053305484                       # number of demand (read+write) miss cycles
system.cpu1.dcache.demand_miss_latency::total   4053305484                       # number of demand (read+write) miss cycles
system.cpu1.dcache.overall_miss_latency::.cpu1.data   4053305484                       # number of overall miss cycles
system.cpu1.dcache.overall_miss_latency::total   4053305484                       # number of overall miss cycles
system.cpu1.dcache.demand_accesses::.cpu1.data      6087946                       # number of demand (read+write) accesses
system.cpu1.dcache.demand_accesses::total      6087946                       # number of demand (read+write) accesses
system.cpu1.dcache.overall_accesses::.cpu1.data      6095337                       # number of overall (read+write) accesses
system.cpu1.dcache.overall_accesses::total      6095337                       # number of overall (read+write) accesses
system.cpu1.dcache.demand_miss_rate::.cpu1.data     0.037217                       # miss rate for demand accesses
system.cpu1.dcache.demand_miss_rate::total     0.037217                       # miss rate for demand accesses
system.cpu1.dcache.overall_miss_rate::.cpu1.data     0.038338                       # miss rate for overall accesses
system.cpu1.dcache.overall_miss_rate::total     0.038338                       # miss rate for overall accesses
system.cpu1.dcache.demand_avg_miss_latency::.cpu1.data 17889.227922                       # average overall miss latency
system.cpu1.dcache.demand_avg_miss_latency::total 17889.227922                       # average overall miss latency
system.cpu1.dcache.overall_avg_miss_latency::.cpu1.data 17345.316022                       # average overall miss latency
system.cpu1.dcache.overall_avg_miss_latency::total 17345.316022                       # average overall miss latency
system.cpu1.dcache.blocked_cycles::no_mshrs         3247                       # number of cycles access was blocked
system.cpu1.dcache.blocked_cycles::no_targets            0                       # number of cycles access was blocked
system.cpu1.dcache.blocked::no_mshrs               55                       # number of cycles access was blocked
system.cpu1.dcache.blocked::no_targets              0                       # number of cycles access was blocked
system.cpu1.dcache.avg_blocked_cycles::no_mshrs    59.036364                       # average number of cycles each access was blocked
system.cpu1.dcache.avg_blocked_cycles::no_targets          nan                       # average number of cycles each access was blocked
system.cpu1.dcache.writebacks::.writebacks        61461                       # number of writebacks
system.cpu1.dcache.writebacks::total            61461                       # number of writebacks
system.cpu1.dcache.demand_mshr_hits::.cpu1.data         8953                       # number of demand (read+write) MSHR hits
system.cpu1.dcache.demand_mshr_hits::total         8953                       # number of demand (read+write) MSHR hits
system.cpu1.dcache.overall_mshr_hits::.cpu1.data         8953                       # number of overall MSHR hits
system.cpu1.dcache.overall_mshr_hits::total         8953                       # number of overall MSHR hits
system.cpu1.dcache.demand_mshr_misses::.cpu1.data       217625                       # number of demand (read+write) MSHR misses
system.cpu1.dcache.demand_mshr_misses::total       217625                       # number of demand (read+write) MSHR misses
system.cpu1.dcache.overall_mshr_misses::.cpu1.data       221368                       # number of overall MSHR misses
system.cpu1.dcache.overall_mshr_misses::total       221368                       # number of overall MSHR misses
system.cpu1.dcache.demand_mshr_miss_latency::.cpu1.data   3605283000                       # number of demand (read+write) MSHR miss cycles
system.cpu1.dcache.demand_mshr_miss_latency::total   3605283000                       # number of demand (read+write) MSHR miss cycles
system.cpu1.dcache.overall_mshr_miss_latency::.cpu1.data   3901085000                       # number of overall MSHR miss cycles
system.cpu1.dcache.overall_mshr_miss_latency::total   3901085000                       # number of overall MSHR miss cycles
system.cpu1.dcache.demand_mshr_miss_rate::.cpu1.data     0.035747                       # mshr miss rate for demand accesses
system.cpu1.dcache.demand_mshr_miss_rate::total     0.035747                       # mshr miss rate for demand accesses
system.cpu1.dcache.overall_mshr_miss_rate::.cpu1.data     0.036318                       # mshr miss rate for overall accesses
system.cpu1.dcache.overall_mshr_miss_rate::total     0.036318                       # mshr miss rate for overall accesses
system.cpu1.dcache.demand_avg_mshr_miss_latency::.cpu1.data 16566.492820                       # average overall mshr miss latency
system.cpu1.dcache.demand_avg_mshr_miss_latency::total 16566.492820                       # average overall mshr miss latency
system.cpu1.dcache.overall_avg_mshr_miss_latency::.cpu1.data 17622.623866                       # average overall mshr miss latency
system.cpu1.dcache.overall_avg_mshr_miss_latency::total 17622.623866                       # average overall mshr miss latency
system.cpu1.dcache.replacements                221352                       # number of replacements
system.cpu1.dcache.ReadReq_hits::.cpu1.data      3983167                       # number of ReadReq hits
system.cpu1.dcache.ReadReq_hits::total        3983167                       # number of ReadReq hits
system.cpu1.dcache.ReadReq_misses::.cpu1.data       163090                       # number of ReadReq misses
system.cpu1.dcache.ReadReq_misses::total       163090                       # number of ReadReq misses
system.cpu1.dcache.ReadReq_miss_latency::.cpu1.data   2412485500                       # number of ReadReq miss cycles
system.cpu1.dcache.ReadReq_miss_latency::total   2412485500                       # number of ReadReq miss cycles
system.cpu1.dcache.ReadReq_accesses::.cpu1.data      4146257                       # number of ReadReq accesses(hits+misses)
system.cpu1.dcache.ReadReq_accesses::total      4146257                       # number of ReadReq accesses(hits+misses)
system.cpu1.dcache.ReadReq_miss_rate::.cpu1.data     0.039334                       # miss rate for ReadReq accesses
system.cpu1.dcache.ReadReq_miss_rate::total     0.039334                       # miss rate for ReadReq accesses
system.cpu1.dcache.ReadReq_avg_miss_latency::.cpu1.data 14792.356981                       # average ReadReq miss latency
system.cpu1.dcache.ReadReq_avg_miss_latency::total 14792.356981                       # average ReadReq miss latency
system.cpu1.dcache.ReadReq_mshr_hits::.cpu1.data          470                       # number of ReadReq MSHR hits
system.cpu1.dcache.ReadReq_mshr_hits::total          470                       # number of ReadReq MSHR hits
system.cpu1.dcache.ReadReq_mshr_misses::.cpu1.data       162620                       # number of ReadReq MSHR misses
system.cpu1.dcache.ReadReq_mshr_misses::total       162620                       # number of ReadReq MSHR misses
system.cpu1.dcache.ReadReq_mshr_miss_latency::.cpu1.data   2228126000                       # number of ReadReq MSHR miss cycles
system.cpu1.dcache.ReadReq_mshr_miss_latency::total   2228126000                       # number of ReadReq MSHR miss cycles
system.cpu1.dcache.ReadReq_mshr_miss_rate::.cpu1.data     0.039221                       # mshr miss rate for ReadReq accesses
system.cpu1.dcache.ReadReq_mshr_miss_rate::total     0.039221                       # mshr miss rate for ReadReq accesses
system.cpu1.dcache.ReadReq_avg_mshr_miss_latency::.cpu1.data 13701.426639                       # average ReadReq mshr miss latency
system.cpu1.dcache.ReadReq_avg_mshr_miss_latency::total 13701.426639                       # average ReadReq mshr miss latency
system.cpu1.dcache.WriteReq_hits::.cpu1.data      1878201                       # number of WriteReq hits
system.cpu1.dcache.WriteReq_hits::total       1878201                       # number of WriteReq hits
system.cpu1.dcache.WriteReq_misses::.cpu1.data        63488                       # number of WriteReq misses
system.cpu1.dcache.WriteReq_misses::total        63488                       # number of WriteReq misses
system.cpu1.dcache.WriteReq_miss_latency::.cpu1.data   1640819984                       # number of WriteReq miss cycles
system.cpu1.dcache.WriteReq_miss_latency::total   1640819984                       # number of WriteReq miss cycles
system.cpu1.dcache.WriteReq_accesses::.cpu1.data      1941689                       # number of WriteReq accesses(hits+misses)
system.cpu1.dcache.WriteReq_accesses::total      1941689                       # number of WriteReq accesses(hits+misses)
system.cpu1.dcache.WriteReq_miss_rate::.cpu1.data     0.032697                       # miss rate for WriteReq accesses
[...]
system.mem_ctrls.bytesPerActivate::mean    189.347197                       # Bytes accessed per row activation
system.mem_ctrls.bytesPerActivate::gmean   135.871725                       # Bytes accessed per row activation
system.mem_ctrls.bytesPerActivate::stdev   177.912455                       # Bytes accessed per row activation
system.mem_ctrls.bytesPerActivate::0-127        18533     43.60%     43.60% # Bytes accessed per row activation
system.mem_ctrls.bytesPerActivate::128-255        11746     27.63%     71.23% # Bytes accessed per row activation
system.mem_ctrls.bytesPerActivate::256-383         5721     13.46%     84.69% # Bytes accessed per row activation
system.mem_ctrls.bytesPerActivate::384-511         3764      8.85%     93.54% # Bytes accessed per row activation
system.mem_ctrls.bytesPerActivate::512-639         1467      3.45%     96.99% # Bytes accessed per row activation
system.mem_ctrls.bytesPerActivate::640-767          367      0.86%     97.86% # Bytes accessed per row activation
system.mem_ctrls.bytesPerActivate::768-895          221      0.52%     98.38% # Bytes accessed per row activation
system.mem_ctrls.bytesPerActivate::896-1023          135      0.32%     98.69% # Bytes accessed per row activation
system.mem_ctrls.bytesPerActivate::1024-1151          555      1.31%    100.00% # Bytes accessed per row activation
system.mem_ctrls.bytesPerActivate::total        42509                       # Bytes accessed per row activation
system.mem_ctrls.rdPerTurnAround::samples         1195                       # Reads before turning the bus around for writes
system.mem_ctrls.rdPerTurnAround::mean      88.646862                       # Reads before turning the bus around for writes
system.mem_ctrls.rdPerTurnAround::gmean     72.593379                       # Reads before turning the bus around for writes
system.mem_ctrls.rdPerTurnAround::stdev     58.912798                       # Reads before turning the bus around for writes
system.mem_ctrls.rdPerTurnAround::0-63            348     29.12%     29.12% # Reads before turning the bus around for writes
system.mem_ctrls.rdPerTurnAround::64-127          661     55.31%     84.44% # Reads before turning the bus around for writes
system.mem_ctrls.rdPerTurnAround::128-191          164     13.72%     98.16% # Reads before turning the bus around for writes
system.mem_ctrls.rdPerTurnAround::192-255           13      1.09%     99.25% # Reads before turning the bus around for writes
system.mem_ctrls.rdPerTurnAround::256-319            3      0.25%     99.50% # Reads before turning the bus around for writes
system.mem_ctrls.rdPerTurnAround::320-383            3      0.25%     99.75% # Reads before turning the bus around for writes
system.mem_ctrls.rdPerTurnAround::384-447            1      0.08%     99.83% # Reads before turning the bus around for writes
system.mem_ctrls.rdPerTurnAround::640-703            1      0.08%     99.92% # Reads before turning the bus around for writes
system.mem_ctrls.rdPerTurnAround::1152-1215            1      0.08%    100.00% # Reads before turning the bus around for writes
system.mem_ctrls.rdPerTurnAround::total          1195                       # Reads before turning the bus around for writes
system.mem_ctrls.wrPerTurnAround::samples         1195                       # Writes before turning the bus around for reads
system.mem_ctrls.wrPerTurnAround::mean      16.513808                       # Writes before turning the bus around for reads
system.mem_ctrls.wrPerTurnAround::gmean     16.489892                       # Writes before turning the bus around for reads
system.mem_ctrls.wrPerTurnAround::stdev      0.910815                       # Writes before turning the bus around for reads
system.mem_ctrls.wrPerTurnAround::16              894     74.81%     74.81% # Writes before turning the bus around for reads
system.mem_ctrls.wrPerTurnAround::17               14      1.17%     75.98% # Writes before turning the bus around for reads
system.mem_ctrls.wrPerTurnAround::18              265     22.18%     98.16% # Writes before turning the bus around for reads
system.mem_ctrls.wrPerTurnAround::19               20      1.67%     99.83% # Writes before turning the bus around for reads
system.mem_ctrls.wrPerTurnAround::20                1      0.08%     99.92% # Writes before turning the bus around for reads
system.mem_ctrls.wrPerTurnAround::22                1      0.08%    100.00% # Writes before turning the bus around for reads
system.mem_ctrls.wrPerTurnAround::total          1195                       # Writes before turning the bus around for reads
system.mem_ctrls.bytesReadDRAM                6787648                       # Total number of bytes read from DRAM
system.mem_ctrls.bytesReadWrQ                  268864                       # Total number of bytes read from write queue
system.mem_ctrls.bytesWritten                 1262976                       # Total number of bytes written to DRAM
system.mem_ctrls.bytesReadSys                 7056512                       # Total read bytes from the system interface side
system.mem_ctrls.bytesWrittenSys              1467904                       # Total written bytes from the system interface side
system.mem_ctrls.avgRdBW                       485.96                       # Average DRAM read bandwidth in MiByte/s
system.mem_ctrls.avgWrBW                        90.42                       # Average achieved write bandwidth in MiByte/s
system.mem_ctrls.avgRdBWSys                    505.21                       # Average system read bandwidth in MiByte/s
system.mem_ctrls.avgWrBWSys                    105.09                       # Average system write bandwidth in MiByte/s
system.mem_ctrls.peakBW                      12800.00                       # Theoretical peak bandwidth in MiByte/s
system.mem_ctrls.busUtil                         4.50                       # Data bus utilization in percentage
system.mem_ctrls.busUtilRead                     3.80                       # Data bus utilization in percentage for reads
system.mem_ctrls.busUtilWrite                    0.71                       # Data bus utilization in percentage for writes
system.mem_ctrls.totGap                   13966971000                       # Total gap between requests
system.mem_ctrls.avgGap                     104861.86                       # Average gap between requests
system.mem_ctrls.masterReadBytes::.cpu0.inst      3850048                       # Per-master bytes read from memory
system.mem_ctrls.masterReadBytes::.cpu0.data      1872320                       # Per-master bytes read from memory
system.mem_ctrls.masterReadBytes::.cpu1.inst       117248                       # Per-master bytes read from memory
system.mem_ctrls.masterReadBytes::.cpu1.data       948032                       # Per-master bytes read from memory
system.mem_ctrls.masterWriteBytes::.writebacks      1262976                       # Per-master bytes write to memory
system.mem_ctrls.masterReadRate::.cpu0.inst 275640936.836736083031                       # Per-master bytes read from memory rate (Bytes/sec)
system.mem_ctrls.masterReadRate::.cpu0.data 134047170.024414688349                       # Per-master bytes read from memory rate (Bytes/sec)
system.mem_ctrls.masterReadRate::.cpu1.inst 8394271.594077173620                       # Per-master bytes read from memory rate (Bytes/sec)
system.mem_ctrls.masterReadRate::.cpu1.data 67873550.831367447972                       # Per-master bytes read from memory rate (Bytes/sec)
system.mem_ctrls.masterWriteRate::.writebacks 90421700.675501599908                       # Per-master bytes write to memory rate (Bytes/sec)
system.mem_ctrls.masterReadAccesses::.cpu0.inst        60157                       # Per-master read serviced memory accesses
system.mem_ctrls.masterReadAccesses::.cpu0.data        33429                       # Per-master read serviced memory accesses
system.mem_ctrls.masterReadAccesses::.cpu1.inst         1832                       # Per-master read serviced memory accesses
system.mem_ctrls.masterReadAccesses::.cpu1.data        14840                       # Per-master read serviced memory accesses
system.mem_ctrls.masterWriteAccesses::.writebacks        22936                       # Per-master write serviced memory accesses
system.mem_ctrls.masterReadTotalLat::.cpu0.inst   1792573750                       # Per-master read total memory access latency
system.mem_ctrls.masterReadTotalLat::.cpu0.data   1066282750                       # Per-master read total memory access latency
system.mem_ctrls.masterReadTotalLat::.cpu1.inst     55789250                       # Per-master read total memory access latency
system.mem_ctrls.masterReadTotalLat::.cpu1.data    485601000                       # Per-master read total memory access latency
system.mem_ctrls.masterWriteTotalLat::.writebacks 340670188750                       # Per-master write total memory access latency
system.mem_ctrls.masterReadAvgLat::.cpu0.inst     29798.26                       # Per-master read average memory access latency
system.mem_ctrls.masterReadAvgLat::.cpu0.data     31896.94                       # Per-master read average memory access latency
system.mem_ctrls.masterReadAvgLat::.cpu1.inst     30452.65                       # Per-master read average memory access latency
system.mem_ctrls.masterReadAvgLat::.cpu1.data     32722.44                       # Per-master read average memory access latency
system.mem_ctrls.masterWriteAvgLat::.writebacks  14853077.64                       # Per-master write average memory access latency
system.mem_ctrls.pageHitRate                    66.18                       # Row buffer hit rate, read and write combined
system.mem_ctrls.rank1.actEnergy            108320940                       # Energy for activate commands per rank (pJ)
system.mem_ctrls.rank1.preEnergy             57558765                       # Energy for precharge commands per rank (pJ)
system.mem_ctrls.rank1.readEnergy           277895940                       # Energy for read commands per rank (pJ)
system.mem_ctrls.rank1.writeEnergy           54945720                       # Energy for write commands per rank (pJ)
system.mem_ctrls.rank1.refreshEnergy     1102049520.000000                       # Energy for refresh commands per rank (pJ)
system.mem_ctrls.rank1.actBackEnergy       5916076740                       # Energy for active background per rank (pJ)
system.mem_ctrls.rank1.preBackEnergy        381607200                       # Energy for precharge background per rank (pJ)
system.mem_ctrls.rank1.actPowerDownEnergy            0                       # Energy for active power-down per rank (pJ)
system.mem_ctrls.rank1.prePowerDownEnergy            0                       # Energy for precharge power-down per rank (pJ)
system.mem_ctrls.rank1.selfRefreshEnergy            0                       # Energy for self refresh per rank (pJ)
system.mem_ctrls.rank1.totalEnergy         7898454825                       # Total energy per rank (pJ)
system.mem_ctrls.rank1.averagePower        565.483206                       # Core power per rank (mW)
system.mem_ctrls.rank1.totalIdleTime                0                       # Total Idle time Per DRAM Rank
system.mem_ctrls.rank1.memoryStateTime::IDLE    942104750                       # Time in different power states
system.mem_ctrls.rank1.memoryStateTime::REF    466180000                       # Time in different power states
system.mem_ctrls.rank1.memoryStateTime::SREF            0                       # Time in different power states
system.mem_ctrls.rank1.memoryStateTime::PRE_PDN            0                       # Time in different power states
system.mem_ctrls.rank1.memoryStateTime::ACT  12559335750                       # Time in different power states
system.mem_ctrls.rank1.memoryStateTime::ACT_PDN            0                       # Time in different power states
system.mem_ctrls.rank0.actEnergy            195271860                       # Energy for activate commands per rank (pJ)
system.mem_ctrls.rank0.preEnergy            103762890                       # Energy for precharge commands per rank (pJ)
system.mem_ctrls.rank0.readEnergy           479351040                       # Energy for read commands per rank (pJ)
system.mem_ctrls.rank0.writeEnergy           48065760                       # Energy for write commands per rank (pJ)
system.mem_ctrls.rank0.refreshEnergy     1102049520.000000                       # Energy for refresh commands per rank (pJ)
system.mem_ctrls.rank0.actBackEnergy       6177716430                       # Energy for active background per rank (pJ)
system.mem_ctrls.rank0.preBackEnergy        161279040                       # Energy for precharge background per rank (pJ)
system.mem_ctrls.rank0.actPowerDownEnergy            0                       # Energy for active power-down per rank (pJ)
system.mem_ctrls.rank0.prePowerDownEnergy            0                       # Energy for precharge power-down per rank (pJ)
system.mem_ctrls.rank0.selfRefreshEnergy            0                       # Energy for self refresh per rank (pJ)
system.mem_ctrls.rank0.totalEnergy         8267496540                       # Total energy per rank (pJ)
system.mem_ctrls.rank0.averagePower        591.904436                       # Core power per rank (mW)
system.mem_ctrls.rank0.totalIdleTime                0                       # Total Idle time Per DRAM Rank
system.mem_ctrls.rank0.memoryStateTime::IDLE    365268500                       # Time in different power states
system.mem_ctrls.rank0.memoryStateTime::REF    466180000                       # Time in different power states
system.mem_ctrls.rank0.memoryStateTime::SREF            0                       # Time in different power states
system.mem_ctrls.rank0.memoryStateTime::PRE_PDN            0                       # Time in different power states
system.mem_ctrls.rank0.memoryStateTime::ACT  13136172000                       # Time in different power states
system.mem_ctrls.rank0.memoryStateTime::ACT_PDN            0                       # Time in different power states
system.mem_ctrls.power_state.pwrStateResidencyTicks::UNDEFINED  13967620500                       # Cumulative time (in ticks) in various power states
system.cpu_clk_domain.clock                       500                       # Clock period in ticks
system.tol2bus.trans_dist::ReadResp            760604                       # Transaction distribution
system.tol2bus.trans_dist::WritebackDirty       195112                       # Transaction distribution
system.tol2bus.trans_dist::WritebackClean       466564                       # Transaction distribution
system.tol2bus.trans_dist::CleanEvict          316789                       # Transaction distribution
system.tol2bus.trans_dist::ReadExReq           108243                       # Transaction distribution
system.tol2bus.trans_dist::ReadExResp          108243                       # Transaction distribution
system.tol2bus.trans_dist::ReadCleanReq        466597                       # Transaction distribution
system.tol2bus.trans_dist::ReadSharedReq       294008                       # Transaction distribution
system.tol2bus.pkt_count_system.cpu0.icache.mem_side::system.l2.cpu_side      1358205                       # Packet count per connected master and slave (bytes)
system.tol2bus.pkt_count_system.cpu0.dcache.mem_side::system.l2.cpu_side       542633                       # Packet count per connected master and slave (bytes)
system.tol2bus.pkt_count_system.cpu1.icache.mem_side::system.l2.cpu_side        41552                       # Packet count per connected master and slave (bytes)
system.tol2bus.pkt_count_system.cpu1.dcache.mem_side::system.l2.cpu_side       664088                       # Packet count per connected master and slave (bytes)
system.tol2bus.pkt_count::total               2606478                       # Packet count per connected master and slave (bytes)
system.tol2bus.pkt_size_system.cpu0.icache.mem_side::system.l2.cpu_side     57949696                       # Cumulative packet size per connected master and slave (bytes)
system.tol2bus.pkt_size_system.cpu0.dcache.mem_side::system.l2.cpu_side     18662272                       # Cumulative packet size per connected master and slave (bytes)
system.tol2bus.pkt_size_system.cpu1.icache.mem_side::system.l2.cpu_side      1772544                       # Cumulative packet size per connected master and slave (bytes)
system.tol2bus.pkt_size_system.cpu1.dcache.mem_side::system.l2.cpu_side     18101056                       # Cumulative packet size per connected master and slave (bytes)
system.tol2bus.pkt_size::total               96485568                       # Cumulative packet size per connected master and slave (bytes)
system.tol2bus.snoops                          109682                       # Total snoops (count)
system.tol2bus.snoopTraffic                   1467904                       # Total snoop traffic (bytes)
system.tol2bus.snoop_fanout::samples           978530                       # Request fanout histogram
system.tol2bus.snoop_fanout::mean            0.001501                       # Request fanout histogram
system.tol2bus.snoop_fanout::stdev           0.038717                       # Request fanout histogram
system.tol2bus.snoop_fanout::underflows             0      0.00%      0.00% # Request fanout histogram
system.tol2bus.snoop_fanout::0                 977061     99.85%     99.85% # Request fanout histogram
system.tol2bus.snoop_fanout::1                   1469      0.15%    100.00% # Request fanout histogram
system.tol2bus.snoop_fanout::2                      0      0.00%    100.00% # Request fanout histogram
system.tol2bus.snoop_fanout::3                      0      0.00%    100.00% # Request fanout histogram
system.tol2bus.snoop_fanout::4                      0      0.00%    100.00% # Request fanout histogram
system.tol2bus.snoop_fanout::5                      0      0.00%    100.00% # Request fanout histogram
system.tol2bus.snoop_fanout::6                      0      0.00%    100.00% # Request fanout histogram
system.tol2bus.snoop_fanout::7                      0      0.00%    100.00% # Request fanout histogram
system.tol2bus.snoop_fanout::8                      0      0.00%    100.00% # Request fanout histogram
system.tol2bus.snoop_fanout::overflows              0      0.00%    100.00% # Request fanout histogram
system.tol2bus.snoop_fanout::min_value              0                       # Request fanout histogram
system.tol2bus.snoop_fanout::max_value              1                       # Request fanout histogram
system.tol2bus.snoop_fanout::total             978530                       # Request fanout histogram
system.tol2bus.reqLayer0.occupancy         1507555500                       # Layer occupancy (ticks)
system.tol2bus.reqLayer0.utilization             10.8                       # Layer utilization (%)
system.tol2bus.respLayer5.occupancy         332271560                       # Layer occupancy (ticks)
system.tol2bus.respLayer5.utilization             2.4                       # Layer utilization (%)
system.tol2bus.respLayer4.occupancy          20793980                       # Layer occupancy (ticks)
system.tol2bus.respLayer4.utilization             0.1                       # Layer utilization (%)
system.tol2bus.respLayer1.occupancy         271479189                       # Layer occupancy (ticks)
system.tol2bus.respLayer1.utilization             1.9                       # Layer utilization (%)
system.tol2bus.respLayer0.occupancy         679415388                       # Layer occupancy (ticks)
system.tol2bus.respLayer0.utilization             4.9                       # Layer utilization (%)
system.tol2bus.power_state.pwrStateResidencyTicks::UNDEFINED  13967620500                       # Cumulative time (in ticks) in various power states

---------- End Simulation Statistics   ----------
