
---------- Begin Simulation Statistics ----------
final_tick                                48456967500                       # Number of ticks from beginning of simulation (restored from checkpoints and never reset)
host_inst_rate                                 183361                       # Simulator instruction rate (inst/s)
host_mem_usage                                4425528                       # Number of bytes of host memory used
host_op_rate                                   345862                       # Simulator op (including micro ops) rate (op/s)
host_seconds                                    79.10                       # Real time elapsed on the host
host_tick_rate                              612585349                       # Simulator tick rate (ticks/s)
sim_freq                                 1000000000000                       # Frequency of simulated ticks
sim_insts                                    14504270                       # Number of instructions simulated
sim_ops                                      27358486                       # Number of ops (including micro ops) simulated
sim_seconds                                  0.048457                       # Number of seconds simulated
sim_ticks                                 48456967500                       # Number of ticks simulated
system.cpu0.branchPred.BTBCorrect                   0                       # Number of correct BTB predictions (this stat may not work properly.
system.cpu0.branchPred.BTBHitPct                  nan                       # BTB Hit Percentage
system.cpu0.branchPred.BTBHits                      0                       # Number of BTB hits
system.cpu0.branchPred.BTBLookups                   0                       # Number of BTB lookups
system.cpu0.branchPred.RASInCorrect                 0                       # Number of incorrect RAS predictions.
system.cpu0.branchPred.condIncorrect               39                       # Number of conditional branches incorrect
system.cpu0.branchPred.condPredicted               80                       # Number of conditional branches predicted
system.cpu0.branchPred.indirectHits                 0                       # Number of indirect target hits.
system.cpu0.branchPred.indirectLookups             24                       # Number of indirect predictor lookups.
system.cpu0.branchPred.indirectMisses              24                       # Number of indirect misses.
system.cpu0.branchPred.lookups                     80                       # Number of BP lookups
system.cpu0.branchPred.usedRAS                      0                       # Number of times the RAS was used to get a target.
system.cpu0.branchPredindirectMispredicted           15                       # Number of mispredicted indirect branches.
system.cpu0.committedInsts                   10000000                       # Number of instructions committed
system.cpu0.committedOps                     18916380                       # Number of ops (including micro ops) committed
system.cpu0.cpi                              9.691394                       # CPI: cycles per instruction
system.cpu0.discardedOps                      3499131                       # Number of ops (including micro ops) which were discarded before commit
system.cpu0.dtb.rdAccesses                    2501844                       # TLB accesses on read requests
system.cpu0.dtb.rdMisses                        32872                       # TLB misses on read requests
system.cpu0.dtb.wrAccesses                    1828766                       # TLB accesses on write requests
system.cpu0.dtb.wrMisses                         1218                       # TLB misses on write requests
system.cpu0.fetch2.amo_instructions                 0                       # Number of memory atomic instructions successfully decoded
system.cpu0.fetch2.fp_instructions                  0                       # Number of floating point instructions successfully decoded
system.cpu0.fetch2.int_instructions                 8                       # Number of integer instructions successfully decoded
system.cpu0.fetch2.load_instructions                0                       # Number of memory load instructions successfully decoded
system.cpu0.fetch2.store_instructions               0                       # Number of memory store instructions successfully decoded
system.cpu0.fetch2.vec_instructions                 0                       # Number of SIMD instructions successfully decoded
system.cpu0.idleCycles                       64458136                       # Total number of cycles that the object has spent stopped
system.cpu0.ipc                              0.103184                       # IPC: instructions per cycle
system.cpu0.itb.rdAccesses                          0                       # TLB accesses on read requests
system.cpu0.itb.rdMisses                            0                       # TLB misses on read requests
system.cpu0.itb.wrAccesses                    3342037                       # TLB accesses on write requests
system.cpu0.itb.wrMisses                          194                       # TLB misses on write requests
system.cpu0.numCycles                        96913935                       # number of cpu cycles simulated
system.cpu0.numFetchSuspends                        0                       # Number of times Execute suspended instruction fetching
system.cpu0.numWorkItemsCompleted                   0                       # number of work items this cpu completed
system.cpu0.numWorkItemsStarted                     0                       # number of work items this cpu started
system.cpu0.op_class_0::No_OpClass              38775      0.20%      0.20% # Class of committed instruction
system.cpu0.op_class_0::IntAlu               14860976     78.56%     78.77% # Class of committed instruction
system.cpu0.op_class_0::IntMult                 41062      0.22%     78.98% # Class of committed instruction
system.cpu0.op_class_0::IntDiv                   1365      0.01%     78.99% # Class of committed instruction
system.cpu0.op_class_0::FloatAdd                24884      0.13%     79.12% # Class of committed instruction
system.cpu0.op_class_0::FloatCmp                    0      0.00%     79.12% # Class of committed instruction
system.cpu0.op_class_0::FloatCvt                  160      0.00%     79.12% # Class of committed instruction
system.cpu0.op_class_0::FloatMult                   0      0.00%     79.12% # Class of committed instruction
system.cpu0.op_class_0::FloatMultAcc                0      0.00%     79.12% # Class of committed instruction
system.cpu0.op_class_0::FloatDiv                    0      0.00%     79.12% # Class of committed instruction
system.cpu0.op_class_0::FloatMisc                   0      0.00%     79.12% # Class of committed instruction
system.cpu0.op_class_0::FloatSqrt                   0      0.00%     79.12% # Class of committed instruction
system.cpu0.op_class_0::SimdAdd                   946      0.01%     79.13% # Class of committed instruction
system.cpu0.op_class_0::SimdAddAcc                  0      0.00%     79.13% # Class of committed instruction
system.cpu0.op_class_0::SimdAlu                  1027      0.01%     79.13% # Class of committed instruction
system.cpu0.op_class_0::SimdCmp                    12      0.00%     79.13% # Class of committed instruction
system.cpu0.op_class_0::SimdCvt                 27378      0.14%     79.28% # Class of committed instruction
system.cpu0.op_class_0::SimdMisc               112708      0.60%     79.87% # Class of committed instruction
system.cpu0.op_class_0::SimdMult                    0      0.00%     79.87% # Class of committed instruction
system.cpu0.op_class_0::SimdMultAcc                 0      0.00%     79.87% # Class of committed instruction
system.cpu0.op_class_0::SimdShift                 446      0.00%     79.88% # Class of committed instruction
system.cpu0.op_class_0::SimdShiftAcc                0      0.00%     79.88% # Class of committed instruction
system.cpu0.op_class_0::SimdDiv                     0      0.00%     79.88% # Class of committed instruction
system.cpu0.op_class_0::SimdSqrt                    0      0.00%     79.88% # Class of committed instruction
system.cpu0.op_class_0::SimdFloatAdd                0      0.00%     79.88% # Class of committed instruction
system.cpu0.op_class_0::SimdFloatAlu                0      0.00%     79.88% # Class of committed instruction
system.cpu0.op_class_0::SimdFloatCmp                0      0.00%     79.88% # Class of committed instruction
system.cpu0.op_class_0::SimdFloatCvt                0      0.00%     79.88% # Class of committed instruction
system.cpu0.op_class_0::SimdFloatDiv                0      0.00%     79.88% # Class of committed instruction
system.cpu0.op_class_0::SimdFloatMisc               0      0.00%     79.88% # Class of committed instruction
system.cpu0.op_class_0::SimdFloatMult               0      0.00%     79.88% # Class of committed instruction
system.cpu0.op_class_0::SimdFloatMultAcc            0      0.00%     79.88% # Class of committed instruction
system.cpu0.op_class_0::SimdFloatSqrt               0      0.00%     79.88% # Class of committed instruction
system.cpu0.op_class_0::SimdReduceAdd               0      0.00%     79.88% # Class of committed instruction
system.cpu0.op_class_0::SimdReduceAlu               0      0.00%     79.88% # Class of committed instruction
system.cpu0.op_class_0::SimdReduceCmp               0      0.00%     79.88% # Class of committed instruction
system.cpu0.op_class_0::SimdFloatReduceAdd            0      0.00%     79.88% # Class of committed instruction
system.cpu0.op_class_0::SimdFloatReduceCmp            0      0.00%     79.88% # Class of committed instruction
system.cpu0.op_class_0::SimdAes                     0      0.00%     79.88% # Class of committed instruction
system.cpu0.op_class_0::SimdAesMix                  0      0.00%     79.88% # Class of committed instruction
system.cpu0.op_class_0::SimdSha1Hash                0      0.00%     79.88% # Class of committed instruction
system.cpu0.op_class_0::SimdSha1Hash2               0      0.00%     79.88% # Class of committed instruction
system.cpu0.op_class_0::SimdSha256Hash              0      0.00%     79.88% # Class of committed instruction
system.cpu0.op_class_0::SimdSha256Hash2             0      0.00%     79.88% # Class of committed instruction
system.cpu0.op_class_0::SimdShaSigma2               0      0.00%     79.88% # Class of committed instruction
system.cpu0.op_class_0::SimdShaSigma3               0      0.00%     79.88% # Class of committed instruction
system.cpu0.op_class_0::SimdPredAlu                 0      0.00%     79.88% # Class of committed instruction
system.cpu0.op_class_0::MemRead               2046688     10.82%     90.70% # Class of committed instruction
system.cpu0.op_class_0::MemWrite              1656607      8.76%     99.45% # Class of committed instruction
system.cpu0.op_class_0::FloatMemRead            64978      0.34%     99.80% # Class of committed instruction
system.cpu0.op_class_0::FloatMemWrite           38368      0.20%    100.00% # Class of committed instruction
system.cpu0.op_class_0::IprAccess                   0      0.00%    100.00% # Class of committed instruction
system.cpu0.op_class_0::InstPrefetch                0      0.00%    100.00% # Class of committed instruction
system.cpu0.op_class_0::total                18916380                       # Class of committed instruction
system.cpu0.tickCycles                       32455799                       # Number of cycles that the object actually ticked
system.cpu0.workload.numSyscalls                   39                       # Number of system calls
system.cpu1.branchPred.BTBCorrect                   0                       # Number of correct BTB predictions (this stat may not work properly.
system.cpu1.branchPred.BTBHitPct                  nan                       # BTB Hit Percentage
system.cpu1.branchPred.BTBHits                      0                       # Number of BTB hits
system.cpu1.branchPred.BTBLookups                   0                       # Number of BTB lookups
system.cpu1.branchPred.RASInCorrect                 0                       # Number of incorrect RAS predictions.
system.cpu1.branchPred.condIncorrect               30                       # Number of conditional branches incorrect
system.cpu1.branchPred.condPredicted               68                       # Number of conditional branches predicted
system.cpu1.branchPred.indirectHits                 0                       # Number of indirect target hits.
system.cpu1.branchPred.indirectLookups             21                       # Number of indirect predictor lookups.
system.cpu1.branchPred.indirectMisses              21                       # Number of indirect misses.
system.cpu1.branchPred.lookups                     68                       # Number of BP lookups
system.cpu1.branchPred.usedRAS                      0                       # Number of times the RAS was used to get a target.
system.cpu1.branchPredindirectMispredicted           12                       # Number of mispredicted indirect branches.
system.cpu1.committedInsts                    4504270                       # Number of instructions committed
system.cpu1.committedOps                      8442106                       # Number of ops (including micro ops) committed
system.cpu1.cpi                             21.515987                       # CPI: cycles per instruction
system.cpu1.discardedOps                      2764619                       # Number of ops (including micro ops) which were discarded before commit
system.cpu1.dtb.rdAccesses                     718291                       # TLB accesses on read requests
system.cpu1.dtb.rdMisses                         2018                       # TLB misses on read requests
system.cpu1.dtb.wrAccesses                    4210779                       # TLB accesses on write requests
system.cpu1.dtb.wrMisses                        16002                       # TLB misses on write requests
system.cpu1.fetch2.amo_instructions                 0                       # Number of memory atomic instructions successfully decoded
system.cpu1.fetch2.fp_instructions                  0                       # Number of floating point instructions successfully decoded
system.cpu1.fetch2.int_instructions                 8                       # Number of integer instructions successfully decoded
system.cpu1.fetch2.load_instructions                0                       # Number of memory load instructions successfully decoded
system.cpu1.fetch2.store_instructions               0                       # Number of memory store instructions successfully decoded
system.cpu1.fetch2.vec_instructions                 0                       # Number of SIMD instructions successfully decoded
system.cpu1.idleCycles                       82873051                       # Total number of cycles that the object has spent stopped
system.cpu1.ipc                              0.046477                       # IPC: instructions per cycle
system.cpu1.itb.rdAccesses                          0                       # TLB accesses on read requests
system.cpu1.itb.rdMisses                            0                       # TLB misses on read requests
system.cpu1.itb.wrAccesses                    1757415                       # TLB accesses on write requests
system.cpu1.itb.wrMisses                          183                       # TLB misses on write requests
system.cpu1.numCycles                        96913815                       # number of cpu cycles simulated
system.cpu1.numFetchSuspends                        0                       # Number of times Execute suspended instruction fetching
system.cpu1.numWorkItemsCompleted                   0                       # number of work items this cpu completed
system.cpu1.numWorkItemsStarted                     0                       # number of work items this cpu started
system.cpu1.op_class_0::No_OpClass               2098      0.02%      0.02% # Class of committed instruction
system.cpu1.op_class_0::IntAlu                4023986     47.67%     47.69% # Class of committed instruction
system.cpu1.op_class_0::IntMult                   641      0.01%     47.70% # Class of committed instruction
system.cpu1.op_class_0::IntDiv                   1317      0.02%     47.71% # Class of committed instruction
system.cpu1.op_class_0::FloatAdd                  189      0.00%     47.72% # Class of committed instruction
system.cpu1.op_class_0::FloatCmp                    0      0.00%     47.72% # Class of committed instruction
system.cpu1.op_class_0::FloatCvt                   96      0.00%     47.72% # Class of committed instruction
system.cpu1.op_class_0::FloatMult                   0      0.00%     47.72% # Class of committed instruction
system.cpu1.op_class_0::FloatMultAcc                0      0.00%     47.72% # Class of committed instruction
system.cpu1.op_class_0::FloatDiv                    0      0.00%     47.72% # Class of committed instruction
system.cpu1.op_class_0::FloatMisc                   0      0.00%     47.72% # Class of committed instruction
system.cpu1.op_class_0::FloatSqrt                   0      0.00%     47.72% # Class of committed instruction
system.cpu1.op_class_0::SimdAdd                   916      0.01%     47.73% # Class of committed instruction
system.cpu1.op_class_0::SimdAddAcc                  0      0.00%     47.73% # Class of committed instruction
system.cpu1.op_class_0::SimdAlu                   943      0.01%     47.74% # Class of committed instruction
system.cpu1.op_class_0::SimdCmp                     0      0.00%     47.74% # Class of committed instruction
system.cpu1.op_class_0::SimdCvt                  1230      0.01%     47.75% # Class of committed instruction
system.cpu1.op_class_0::SimdMisc                  843      0.01%     47.76% # Class of committed instruction
system.cpu1.op_class_0::SimdMult                    0      0.00%     47.76% # Class of committed instruction
system.cpu1.op_class_0::SimdMultAcc                 0      0.00%     47.76% # Class of committed instruction
system.cpu1.op_class_0::SimdShift                 388      0.00%     47.77% # Class of committed instruction
system.cpu1.op_class_0::SimdShiftAcc                0      0.00%     47.77% # Class of committed instruction
system.cpu1.op_class_0::SimdDiv                     0      0.00%     47.77% # Class of committed instruction
system.cpu1.op_class_0::SimdSqrt                    0      0.00%     47.77% # Class of committed instruction
system.cpu1.op_class_0::SimdFloatAdd                0      0.00%     47.77% # Class of committed instruction
system.cpu1.op_class_0::SimdFloatAlu                0      0.00%     47.77% # Class of committed instruction
system.cpu1.op_class_0::SimdFloatCmp                0      0.00%     47.77% # Class of committed instruction
system.cpu1.op_class_0::SimdFloatCvt                0      0.00%     47.77% # Class of committed instruction
system.cpu1.op_class_0::SimdFloatDiv                0      0.00%     47.77% # Class of committed instruction
system.cpu1.op_class_0::SimdFloatMisc               0      0.00%     47.77% # Class of committed instruction
system.cpu1.op_class_0::SimdFloatMult               0      0.00%     47.77% # Class of committed instruction
system.cpu1.op_class_0::SimdFloatMultAcc            0      0.00%     47.77% # Class of committed instruction
system.cpu1.op_class_0::SimdFloatSqrt               0      0.00%     47.77% # Class of committed instruction
system.cpu1.op_class_0::SimdReduceAdd               0      0.00%     47.77% # Class of committed instruction
system.cpu1.op_class_0::SimdReduceAlu               0      0.00%     47.77% # Class of committed instruction
system.cpu1.op_class_0::SimdReduceCmp               0      0.00%     47.77% # Class of committed instruction
system.cpu1.op_class_0::SimdFloatReduceAdd            0      0.00%     47.77% # Class of committed instruction
system.cpu1.op_class_0::SimdFloatReduceCmp            0      0.00%     47.77% # Class of committed instruction
system.cpu1.op_class_0::SimdAes                     0      0.00%     47.77% # Class of committed instruction
system.cpu1.op_class_0::SimdAesMix                  0      0.00%     47.77% # Class of committed instruction
system.cpu1.op_class_0::SimdSha1Hash                0      0.00%     47.77% # Class of committed instruction
system.cpu1.op_class_0::SimdSha1Hash2               0      0.00%     47.77% # Class of committed instruction
system.cpu1.op_class_0::SimdSha256Hash              0      0.00%     47.77% # Class of committed instruction
system.cpu1.op_class_0::SimdSha256Hash2             0      0.00%     47.77% # Class of committed instruction
system.cpu1.op_class_0::SimdShaSigma2               0      0.00%     47.77% # Class of committed instruction
system.cpu1.op_class_0::SimdShaSigma3               0      0.00%     47.77% # Class of committed instruction
system.cpu1.op_class_0::SimdPredAlu                 0      0.00%     47.77% # Class of committed instruction
system.cpu1.op_class_0::MemRead                199681      2.37%     50.13% # Class of committed instruction
system.cpu1.op_class_0::MemWrite               133412      1.58%     51.71% # Class of committed instruction
system.cpu1.op_class_0::FloatMemRead             1610      0.02%     51.73% # Class of committed instruction
system.cpu1.op_class_0::FloatMemWrite         4074756     48.27%    100.00% # Class of committed instruction
system.cpu1.op_class_0::IprAccess                   0      0.00%    100.00% # Class of committed instruction
system.cpu1.op_class_0::InstPrefetch                0      0.00%    100.00% # Class of committed instruction
system.cpu1.op_class_0::total                 8442106                       # Class of committed instruction
system.cpu1.tickCycles                       14040764                       # Number of cycles that the object actually ticked
system.cpu1.workload.numSyscalls                   30                       # Number of system calls
system.membus.snoop_filter.hit_multi_requests            0                       # Number of requests hitting in the snoop filter with multiple (>1) holders of the requested data.
system.membus.snoop_filter.hit_multi_snoops            0                       # Number of snoops hitting in the snoop filter with multiple (>1) holders of the requested data.
system.membus.snoop_filter.hit_single_requests       780343                       # Number of requests hitting in the snoop filter with a single holder of the requested data.
system.membus.snoop_filter.hit_single_snoops            0                       # Number of snoops hitting in the snoop filter with a single holder of the requested data.
system.membus.snoop_filter.tot_requests       1561728                       # Total number of requests made to the snoop filter.
system.membus.snoop_filter.tot_snoops               0                       # Total number of snoops made to the snoop filter.
system.tol2bus.snoop_filter.hit_multi_requests            0                       # Number of requests hitting in the snoop filter with multiple (>1) holders of the requested data.
system.tol2bus.snoop_filter.hit_multi_snoops            0                       # Number of snoops hitting in the snoop filter with multiple (>1) holders of the requested data.
system.tol2bus.snoop_filter.hit_single_requests      2796034                       # Number of requests hitting in the snoop filter with a single holder of the requested data.
system.tol2bus.snoop_filter.hit_single_snoops          198                       # Number of snoops hitting in the snoop filter with a single holder of the requested data.
system.tol2bus.snoop_filter.tot_requests      5592133                       # Total number of requests made to the snoop filter.
system.tol2bus.snoop_filter.tot_snoops            198                       # Total number of snoops made to the snoop filter.
system.membus.trans_dist::ReadResp             227805                       # Transaction distribution
system.membus.trans_dist::WritebackDirty       563127                       # Transaction distribution
system.membus.trans_dist::CleanEvict           217216                       # Transaction distribution
system.membus.trans_dist::ReadExReq            553580                       # Transaction distribution
system.membus.trans_dist::ReadExResp           553579                       # Transaction distribution
system.membus.trans_dist::ReadSharedReq        227805                       # Transaction distribution
system.membus.pkt_count_system.l2.mem_side::system.mem_ctrls.port      2343112                       # Packet count per connected master and slave (bytes)
system.membus.pkt_count_system.l2.mem_side::total      2343112                       # Packet count per connected master and slave (bytes)
system.membus.pkt_count::total                2343112                       # Packet count per connected master and slave (bytes)
system.membus.pkt_size_system.l2.mem_side::system.mem_ctrls.port     86048704                       # Cumulative packet size per connected master and slave (bytes)
system.membus.pkt_size_system.l2.mem_side::total     86048704                       # Cumulative packet size per connected master and slave (bytes)
system.membus.pkt_size::total                86048704                       # Cumulative packet size per connected master and slave (bytes)
system.membus.snoops                                0                       # Total snoops (count)
system.membus.snoopTraffic                          0                       # Total snoop traffic (bytes)
system.membus.snoop_fanout::samples            781385                       # Request fanout histogram
system.membus.snoop_fanout::mean                    0                       # Request fanout histogram
system.membus.snoop_fanout::stdev                   0                       # Request fanout histogram
system.membus.snoop_fanout::underflows              0      0.00%      0.00% # Request fanout histogram
system.membus.snoop_fanout::0                  781385    100.00%    100.00% # Request fanout histogram
system.membus.snoop_fanout::1                       0      0.00%    100.00% # Request fanout histogram
system.membus.snoop_fanout::overflows               0      0.00%    100.00% # Request fanout histogram
system.membus.snoop_fanout::min_value               0                       # Request fanout histogram
system.membus.snoop_fanout::max_value               0                       # Request fanout histogram
system.membus.snoop_fanout::total              781385                       # Request fanout histogram
system.membus.reqLayer4.occupancy          4097828000                       # Layer occupancy (ticks)
system.membus.reqLayer4.utilization               8.5                       # Layer utilization (%)
system.membus.respLayer1.occupancy         4144483250                       # Layer occupancy (ticks)
system.membus.respLayer1.utilization              8.6                       # Layer utilization (%)
system.membus.power_state.pwrStateResidencyTicks::UNDEFINED  48456967500                       # Cumulative time (in ticks) in various power states
system.voltage_domain.voltage                       1                       # Voltage in Volts
system.clk_domain.clock                          1000                       # Clock period in ticks
system.cpu0.icache.demand_hits::.cpu0.inst      1724592                       # number of demand (read+write) hits
system.cpu0.icache.demand_hits::total         1724592                       # number of demand (read+write) hits
system.cpu0.icache.overall_hits::.cpu0.inst      1724592                       # number of overall hits
system.cpu0.icache.overall_hits::total        1724592                       # number of overall hits
system.cpu0.icache.demand_misses::.cpu0.inst      1617392                       # number of demand (read+write) misses
system.cpu0.icache.demand_misses::total       1617392                       # number of demand (read+write) misses
system.cpu0.icache.overall_misses::.cpu0.inst      1617392                       # number of overall misses
system.cpu0.icache.overall_misses::total      1617392                       # number of overall misses
system.cpu0.icache.demand_miss_latency::.cpu0.inst  35203347500                       # number of demand (read+write) miss cycles
system.cpu0.icache.demand_miss_latency::total  35203347500                       # number of demand (read+write) miss cycles
system.cpu0.icache.overall_miss_latency::.cpu0.inst  35203347500                       # number of overall miss cycles
system.cpu0.icache.overall_miss_latency::total  35203347500                       # number of overall miss cycles
system.cpu0.icache.demand_accesses::.cpu0.inst      3341984                       # number of demand (read+write) accesses
system.cpu0.icache.demand_accesses::total      3341984                       # number of demand (read+write) accesses
system.cpu0.icache.overall_accesses::.cpu0.inst      3341984                       # number of overall (read+write) accesses
system.cpu0.icache.overall_accesses::total      3341984                       # number of overall (read+write) accesses
system.cpu0.icache.demand_miss_rate::.cpu0.inst     0.483962                       # miss rate for demand accesses
system.cpu0.icache.demand_miss_rate::total     0.483962                       # miss rate for demand accesses
system.cpu0.icache.overall_miss_rate::.cpu0.inst     0.483962                       # miss rate for overall accesses
system.cpu0.icache.overall_miss_rate::total     0.483962                       # miss rate for overall accesses
system.cpu0.icache.demand_avg_miss_latency::.cpu0.inst 21765.501190                       # average overall miss latency
system.cpu0.icache.demand_avg_miss_latency::total 21765.501190                       # average overall miss latency
system.cpu0.icache.overall_avg_miss_latency::.cpu0.inst 21765.501190                       # average overall miss latency
system.cpu0.icache.overall_avg_miss_latency::total 21765.501190                       # average overall miss latency
system.cpu0.icache.blocked_cycles::no_mshrs            0                       # number of cycles access was blocked
system.cpu0.icache.blocked_cycles::no_targets            0                       # number of cycles access was blocked
system.cpu0.icache.blocked::no_mshrs                0                       # number of cycles access was blocked
system.cpu0.icache.blocked::no_targets              0                       # number of cycles access was blocked
system.cpu0.icache.avg_blocked_cycles::no_mshrs          nan                       # average number of cycles each access was blocked
system.cpu0.icache.avg_blocked_cycles::no_targets          nan                       # average number of cycles each access was blocked
system.cpu0.icache.writebacks::.writebacks      1617376                       # number of writebacks
system.cpu0.icache.writebacks::total          1617376                       # number of writebacks
system.cpu0.icache.demand_mshr_misses::.cpu0.inst      1617392                       # number of demand (read+write) MSHR misses
system.cpu0.icache.demand_mshr_misses::total      1617392                       # number of demand (read+write) MSHR misses
system.cpu0.icache.overall_mshr_misses::.cpu0.inst      1617392                       # number of overall MSHR misses
system.cpu0.icache.overall_mshr_misses::total      1617392                       # number of overall MSHR misses
system.cpu0.icache.demand_mshr_miss_latency::.cpu0.inst  33585955500                       # number of demand (read+write) MSHR miss cycles
system.cpu0.icache.demand_mshr_miss_latency::total  33585955500                       # number of demand (read+write) MSHR miss cycles
system.cpu0.icache.overall_mshr_miss_latency::.cpu0.inst  33585955500                       # number of overall MSHR miss cycles
system.cpu0.icache.overall_mshr_miss_latency::total  33585955500                       # number of overall MSHR miss cycles
system.cpu0.icache.demand_mshr_miss_rate::.cpu0.inst     0.483962                       # mshr miss rate for demand accesses
system.cpu0.icache.demand_mshr_miss_rate::total     0.483962                       # mshr miss rate for demand accesses
system.cpu0.icache.overall_mshr_miss_rate::.cpu0.inst     0.483962                       # mshr miss rate for overall accesses
system.cpu0.icache.overall_mshr_miss_rate::total     0.483962                       # mshr miss rate for overall accesses
system.cpu0.icache.demand_avg_mshr_miss_latency::.cpu0.inst 20765.501190                       # average overall mshr miss latency
system.cpu0.icache.demand_avg_mshr_miss_latency::total 20765.501190                       # average overall mshr miss latency
system.cpu0.icache.overall_avg_mshr_miss_latency::.cpu0.inst 20765.501190                       # average overall mshr miss latency
system.cpu0.icache.overall_avg_mshr_miss_latency::total 20765.501190                       # average overall mshr miss latency
system.cpu0.icache.replacements               1617376                       # number of replacements
system.cpu0.icache.ReadReq_hits::.cpu0.inst      1724592                       # number of ReadReq hits
system.cpu0.icache.ReadReq_hits::total        1724592                       # number of ReadReq hits
system.cpu0.icache.ReadReq_misses::.cpu0.inst      1617392                       # number of ReadReq misses
system.cpu0.icache.ReadReq_misses::total      1617392                       # number of ReadReq misses
system.cpu0.icache.ReadReq_miss_latency::.cpu0.inst  35203347500                       # number of ReadReq miss cycles
system.cpu0.icache.ReadReq_miss_latency::total  35203347500                       # number of ReadReq miss cycles
system.cpu0.icache.ReadReq_accesses::.cpu0.inst      3341984                       # number of ReadReq accesses(hits+misses)
system.cpu0.icache.ReadReq_accesses::total      3341984                       # number of ReadReq accesses(hits+misses)
system.cpu0.icache.ReadReq_miss_rate::.cpu0.inst     0.483962                       # miss rate for ReadReq accesses
system.cpu0.icache.ReadReq_miss_rate::total     0.483962                       # miss rate for ReadReq accesses
system.cpu0.icache.ReadReq_avg_miss_latency::.cpu0.inst 21765.501190                       # average ReadReq miss latency
system.cpu0.icache.ReadReq_avg_miss_latency::total 21765.501190                       # average ReadReq miss latency
system.cpu0.icache.ReadReq_mshr_misses::.cpu0.inst      1617392                       # number of ReadReq MSHR misses
system.cpu0.icache.ReadReq_mshr_misses::total      1617392                       # number of ReadReq MSHR misses
system.cpu0.icache.ReadReq_mshr_miss_latency::.cpu0.inst  33585955500                       # number of ReadReq MSHR miss cycles
system.cpu0.icache.ReadReq_mshr_miss_latency::total  33585955500                       # number of ReadReq MSHR miss cycles
system.cpu0.icache.ReadReq_mshr_miss_rate::.cpu0.inst     0.483962                       # mshr miss rate for ReadReq accesses
system.cpu0.icache.ReadReq_mshr_miss_rate::total     0.483962                       # mshr miss rate for ReadReq accesses
system.cpu0.icache.ReadReq_avg_mshr_miss_latency::.cpu0.inst 20765.501190                       # average ReadReq mshr miss latency
system.cpu0.icache.ReadReq_avg_mshr_miss_latency::total 20765.501190                       # average ReadReq mshr miss latency
system.cpu0.icache.power_state.pwrStateResidencyTicks::UNDEFINED  48456967500                       # Cumulative time (in ticks) in various power states
system.cpu0.icache.tags.tagsinuse           15.999714                       # Cycle average of tags in use
system.cpu0.icache.tags.total_refs            3341984                       # Total number of references to valid blocks.
system.cpu0.icache.tags.sampled_refs          1617392                       # Sample count of references to valid blocks.
system.cpu0.icache.tags.avg_refs             2.066280                       # Average number of references to valid blocks.
system.cpu0.icache.tags.warmup_cycle            87500                       # Cycle when the warmup percentage was hit.
system.cpu0.icache.tags.occ_blocks::.cpu0.inst    15.999714                       # Average occupied blocks per requestor
system.cpu0.icache.tags.occ_percent::.cpu0.inst     0.999982                       # Average percentage of cache occupancy
system.cpu0.icache.tags.occ_percent::total     0.999982                       # Average percentage of cache occupancy
system.cpu0.icache.tags.occ_task_id_blocks::1024           16                       # Occupied blocks per task id
system.cpu0.icache.tags.age_task_id_blocks_1024::0           16                       # Occupied blocks per task id
system.cpu0.icache.tags.occ_task_id_percent::1024            1                       # Percentage of cache occupancy per task id
system.cpu0.icache.tags.tag_accesses         28353264                       # Number of tag accesses
system.cpu0.icache.tags.data_accesses        28353264                       # Number of data accesses
system.cpu0.icache.tags.power_state.pwrStateResidencyTicks::UNDEFINED  48456967500                       # Cumulative time (in ticks) in various power states
system.cpu0.dtb.walker.power_state.pwrStateResidencyTicks::UNDEFINED  48456967500                       # Cumulative time (in ticks) in various power states
system.cpu0.interrupts.clk_domain.clock          8000                       # Clock period in ticks
system.cpu0.itb_walker_cache.blocked_cycles::no_mshrs            0                       # number of cycles access was blocked
system.cpu0.itb_walker_cache.blocked_cycles::no_targets            0                       # number of cycles access was blocked
system.cpu0.itb_walker_cache.blocked::no_mshrs            0                       # number of cycles access was blocked
system.cpu0.itb_walker_cache.blocked::no_targets            0                       # number of cycles access was blocked
system.cpu0.itb_walker_cache.avg_blocked_cycles::no_mshrs          nan                       # average number of cycles each access was blocked
system.cpu0.itb_walker_cache.avg_blocked_cycles::no_targets          nan                       # average number of cycles each access was blocked
system.cpu0.itb_walker_cache.replacements            0                       # number of replacements
system.cpu0.itb_walker_cache.power_state.pwrStateResidencyTicks::UNDEFINED  48456967500                       # Cumulative time (in ticks) in various power states
system.cpu0.itb_walker_cache.tags.tagsinuse            0                       # Cycle average of tags in use
system.cpu0.itb_walker_cache.tags.total_refs            0                       # Total number of references to valid blocks.
system.cpu0.itb_walker_cache.tags.sampled_refs            0                       # Sample count of references to valid blocks.
system.cpu0.itb_walker_cache.tags.avg_refs          nan                       # Average number of references to valid blocks.
system.cpu0.itb_walker_cache.tags.warmup_cycle            0                       # Cycle when the warmup percentage was hit.
system.cpu0.itb_walker_cache.tags.tag_accesses            0                       # Number of tag accesses
system.cpu0.itb_walker_cache.tags.data_accesses            0                       # Number of data accesses
system.cpu0.itb_walker_cache.tags.power_state.pwrStateResidencyTicks::UNDEFINED  48456967500                       # Cumulative time (in ticks) in various power states
system.cpu0.dtb_walker_cache.blocked_cycles::no_mshrs            0                       # number of cycles access was blocked
system.cpu0.dtb_walker_cache.blocked_cycles::no_targets            0                       # number of cycles access was blocked
system.cpu0.dtb_walker_cache.blocked::no_mshrs            0                       # number of cycles access was blocked
system.cpu0.dtb_walker_cache.blocked::no_targets            0                       # number of cycles access was blocked
system.cpu0.dtb_walker_cache.avg_blocked_cycles::no_mshrs          nan                       # average number of cycles each access was blocked
system.cpu0.dtb_walker_cache.avg_blocked_cycles::no_targets          nan                       # average number of cycles each access was blocked
system.cpu0.dtb_walker_cache.replacements            0                       # number of replacements
system.cpu0.dtb_walker_cache.power_state.pwrStateResidencyTicks::UNDEFINED  48456967500                       # Cumulative time (in ticks) in various power states
system.cpu0.dtb_walker_cache.tags.tagsinuse            0                       # Cycle average of tags in use
system.cpu0.dtb_walker_cache.tags.total_refs            0                       # Total number of references to valid blocks.
system.cpu0.dtb_walker_cache.tags.sampled_refs            0                       # Sample count of references to valid blocks.
system.cpu0.dtb_walker_cache.tags.avg_refs          nan                       # Average number of references to valid blocks.
system.cpu0.dtb_walker_cache.tags.warmup_cycle            0                       # Cycle when the warmup percentage was hit.
system.cpu0.dtb_walker_cache.tags.tag_accesses            0                       # Number of tag accesses
system.cpu0.dtb_walker_cache.tags.data_accesses            0                       # Number of data accesses
system.cpu0.dtb_walker_cache.tags.power_state.pwrStateResidencyTicks::UNDEFINED  48456967500                       # Cumulative time (in ticks) in various power states
system.cpu0.dcache.demand_hits::.cpu0.data      3401611                       # number of demand (read+write) hits
system.cpu0.dcache.demand_hits::total         3401611                       # number of demand (read+write) hits
system.cpu0.dcache.overall_hits::.cpu0.data      3401611                       # number of overall hits
system.cpu0.dcache.overall_hits::total        3401611                       # number of overall hits
system.cpu0.dcache.demand_misses::.cpu0.data       723057                       # number of demand (read+write) misses
system.cpu0.dcache.demand_misses::total        723057                       # number of demand (read+write) misses
system.cpu0.dcache.overall_misses::.cpu0.data       723057                       # number of overall misses
system.cpu0.dcache.overall_misses::total       723057                       # number of overall misses
system.cpu0.dcache.demand_miss_latency::.cpu0.data  17141113000                       # number of demand (read+write) miss cycles
system.cpu0.dcache.demand_miss_latency::total  17141113000                       # number of demand (read+write) miss cycles
system.cpu0.dcache.overall_miss_latency::.cpu0.data  17141113000                       # number of overall miss cycles
system.cpu0.dcache.overall_miss_latency::total  17141113000                       # number of overall miss cycles
system.cpu0.dcache.demand_accesses::.cpu0.data      4124668                       # number of demand (read+write) accesses
system.cpu0.dcache.demand_accesses::total      4124668                       # number of demand (read+write) accesses
system.cpu0.dcache.overall_accesses::.cpu0.data      4124668                       # number of overall (read+write) accesses
system.cpu0.dcache.overall_accesses::total      4124668                       # number of overall (read+write) accesses
system.cpu0.dcache.demand_miss_rate::.cpu0.data     0.175301                       # miss rate for demand accesses
system.cpu0.dcache.demand_miss_rate::total     0.175301                       # miss rate for demand accesses
system.cpu0.dcache.overall_miss_rate::.cpu0.data     0.175301                       # miss rate for overall accesses
system.cpu0.dcache.overall_miss_rate::total     0.175301                       # miss rate for overall accesses
system.cpu0.dcache.demand_avg_miss_latency::.cpu0.data 23706.447763                       # average overall miss latency
system.cpu0.dcache.demand_avg_miss_latency::total 23706.447763                       # average overall miss latency
system.cpu0.dcache.overall_avg_miss_latency::.cpu0.data 23706.447763                       # average overall miss latency
system.cpu0.dcache.overall_avg_miss_latency::total 23706.447763                       # average overall miss latency
system.cpu0.dcache.blocked_cycles::no_mshrs            0                       # number of cycles access was blocked
system.cpu0.dcache.blocked_cycles::no_targets            0                       # number of cycles access was blocked
system.cpu0.dcache.blocked::no_mshrs                0                       # number of cycles access was blocked
system.cpu0.dcache.blocked::no_targets              0                       # number of cycles access was blocked
system.cpu0.dcache.avg_blocked_cycles::no_mshrs          nan                       # average number of cycles each access was blocked
system.cpu0.dcache.avg_blocked_cycles::no_targets          nan                       # average number of cycles each access was blocked
system.cpu0.dcache.writebacks::.writebacks       380828                       # number of writebacks
system.cpu0.dcache.writebacks::total           380828                       # number of writebacks
system.cpu0.dcache.demand_mshr_hits::.cpu0.data        85958                       # number of demand (read+write) MSHR hits
system.cpu0.dcache.demand_mshr_hits::total        85958                       # number of demand (read+write) MSHR hits
system.cpu0.dcache.overall_mshr_hits::.cpu0.data        85958                       # number of overall MSHR hits
system.cpu0.dcache.overall_mshr_hits::total        85958                       # number of overall MSHR hits
system.cpu0.dcache.demand_mshr_misses::.cpu0.data       637099                       # number of demand (read+write) MSHR misses
system.cpu0.dcache.demand_mshr_misses::total       637099                       # number of demand (read+write) MSHR misses
system.cpu0.dcache.overall_mshr_misses::.cpu0.data       637099                       # number of overall MSHR misses
system.cpu0.dcache.overall_mshr_misses::total       637099                       # number of overall MSHR misses
system.cpu0.dcache.demand_mshr_miss_latency::.cpu0.data  13639608000                       # number of demand (read+write) MSHR miss cycles
system.cpu0.dcache.demand_mshr_miss_latency::total  13639608000                       # number of demand (read+write) MSHR miss cycles
system.cpu0.dcache.overall_mshr_miss_latency::.cpu0.data  13639608000                       # number of overall MSHR miss cycles
system.cpu0.dcache.overall_mshr_miss_latency::total  13639608000                       # number of overall MSHR miss cycles
system.cpu0.dcache.demand_mshr_miss_rate::.cpu0.data     0.154461                       # mshr miss rate for demand accesses
system.cpu0.dcache.demand_mshr_miss_rate::total     0.154461                       # mshr miss rate for demand accesses
system.cpu0.dcache.overall_mshr_miss_rate::.cpu0.data     0.154461                       # mshr miss rate for overall accesses
system.cpu0.dcache.overall_mshr_miss_rate::total     0.154461                       # mshr miss rate for overall accesses
system.cpu0.dcache.demand_avg_mshr_miss_latency::.cpu0.data 21408.930166                       # average overall mshr miss latency
system.cpu0.dcache.demand_avg_mshr_miss_latency::total 21408.930166                       # average overall mshr miss latency
system.cpu0.dcache.overall_avg_mshr_miss_latency::.cpu0.data 21408.930166                       # average overall mshr miss latency
system.cpu0.dcache.overall_avg_mshr_miss_latency::total 21408.930166                       # average overall mshr miss latency
system.cpu0.dcache.replacements                637083                       # number of replacements
system.cpu0.dcache.ReadReq_hits::.cpu0.data      1963741                       # number of ReadReq hits
system.cpu0.dcache.ReadReq_hits::total        1963741                       # number of ReadReq hits
system.cpu0.dcache.ReadReq_misses::.cpu0.data       466542                       # number of ReadReq misses
system.cpu0.dcache.ReadReq_misses::total       466542                       # number of ReadReq misses
system.cpu0.dcache.ReadReq_miss_latency::.cpu0.data   9045227000                       # number of ReadReq miss cycles
system.cpu0.dcache.ReadReq_miss_latency::total   9045227000                       # number of ReadReq miss cycles
system.cpu0.dcache.ReadReq_accesses::.cpu0.data      2430283                       # number of ReadReq accesses(hits+misses)
system.cpu0.dcache.ReadReq_accesses::total      2430283                       # number of ReadReq accesses(hits+misses)
system.cpu0.dcache.ReadReq_miss_rate::.cpu0.data     0.191970                       # miss rate for ReadReq accesses
system.cpu0.dcache.ReadReq_miss_rate::total     0.191970                       # miss rate for ReadReq accesses
system.cpu0.dcache.ReadReq_avg_miss_latency::.cpu0.data 19387.808600                       # average ReadReq miss latency
system.cpu0.dcache.ReadReq_avg_miss_latency::total 19387.808600                       # average ReadReq miss latency
system.cpu0.dcache.ReadReq_mshr_hits::.cpu0.data        18097                       # number of ReadReq MSHR hits
system.cpu0.dcache.ReadReq_mshr_hits::total        18097                       # number of ReadReq MSHR hits
system.cpu0.dcache.ReadReq_mshr_misses::.cpu0.data       448445                       # number of ReadReq MSHR misses
system.cpu0.dcache.ReadReq_mshr_misses::total       448445                       # number of ReadReq MSHR misses
system.cpu0.dcache.ReadReq_mshr_miss_latency::.cpu0.data   8286814500                       # number of ReadReq MSHR miss cycles
system.cpu0.dcache.ReadReq_mshr_miss_latency::total   8286814500                       # number of ReadReq MSHR miss cycles
system.cpu0.dcache.ReadReq_mshr_miss_rate::.cpu0.data     0.184524                       # mshr miss rate for ReadReq accesses
system.cpu0.dcache.ReadReq_mshr_miss_rate::total     0.184524                       # mshr miss rate for ReadReq accesses
system.cpu0.dcache.ReadReq_avg_mshr_miss_latency::.cpu0.data 18478.998539                       # average ReadReq mshr miss latency
system.cpu0.dcache.ReadReq_avg_mshr_miss_latency::total 18478.998539                       # average ReadReq mshr miss latency
system.cpu0.dcache.WriteReq_hits::.cpu0.data      1437870                       # number of WriteReq hits
system.cpu0.dcache.WriteReq_hits::total       1437870                       # number of WriteReq hits
system.cpu0.dcache.WriteReq_misses::.cpu0.data       256515                       # number of WriteReq misses
system.cpu0.dcache.WriteReq_misses::total       256515                       # number of WriteReq misses
system.cpu0.dcache.WriteReq_miss_latency::.cpu0.data   8095886000                       # number of WriteReq miss cycles
system.cpu0.dcache.WriteReq_miss_latency::total   8095886000                       # number of WriteReq miss cycles
system.cpu0.dcache.WriteReq_accesses::.cpu0.data      1694385                       # number of WriteReq accesses(hits+misses)
system.cpu0.dcache.WriteReq_accesses::total      1694385                       # number of WriteReq accesses(hits+misses)
system.cpu0.dcache.WriteReq_miss_rate::.cpu0.data     0.151391                       # miss rate for WriteReq accesses
system.cpu0.dcache.WriteReq_miss_rate::total     0.151391                       # miss rate for WriteReq accesses
system.cpu0.dcache.WriteReq_avg_miss_latency::.cpu0.data 31561.062706                       # average WriteReq miss latency
system.cpu0.dcache.WriteReq_avg_miss_latency::total 31561.062706                       # average WriteReq miss latency
system.cpu0.dcache.WriteReq_mshr_hits::.cpu0.data        67861                       # number of WriteReq MSHR hits
system.cpu0.dcache.WriteReq_mshr_hits::total        67861                       # number of WriteReq MSHR hits
system.cpu0.dcache.WriteReq_mshr_misses::.cpu0.data       188654                       # number of WriteReq MSHR misses
system.cpu0.dcache.WriteReq_mshr_misses::total       188654                       # number of WriteReq MSHR misses
system.cpu0.dcache.WriteReq_mshr_miss_latency::.cpu0.data   5352793500                       # number of WriteReq MSHR miss cycles
system.cpu0.dcache.WriteReq_mshr_miss_latency::total   5352793500                       # number of WriteReq MSHR miss cycles
system.cpu0.dcache.WriteReq_mshr_miss_rate::.cpu0.data     0.111341                       # mshr miss rate for WriteReq accesses
system.cpu0.dcache.WriteReq_mshr_miss_rate::total     0.111341                       # mshr miss rate for WriteReq accesses
system.cpu0.dcache.WriteReq_avg_mshr_miss_latency::.cpu0.data 28373.601938                       # average WriteReq mshr miss latency
system.cpu0.dcache.WriteReq_avg_mshr_miss_latency::total 28373.601938                       # average WriteReq mshr miss latency
system.cpu0.dcache.power_state.pwrStateResidencyTicks::UNDEFINED  48456967500                       # Cumulative time (in ticks) in various power states
system.cpu0.dcache.tags.tagsinuse           15.999731                       # Cycle average of tags in use
system.cpu0.dcache.tags.total_refs            4038710                       # Total number of references to valid blocks.
system.cpu0.dcache.tags.sampled_refs           637099                       # Sample count of references to valid blocks.
system.cpu0.dcache.tags.avg_refs             6.339219                       # Average number of references to valid blocks.
system.cpu0.dcache.tags.warmup_cycle           178500                       # Cycle when the warmup percentage was hit.
system.cpu0.dcache.tags.occ_blocks::.cpu0.data    15.999731                       # Average occupied blocks per requestor
system.cpu0.dcache.tags.occ_percent::.cpu0.data     0.999983                       # Average percentage of cache occupancy
system.cpu0.dcache.tags.occ_percent::total     0.999983                       # Average percentage of cache occupancy
system.cpu0.dcache.tags.occ_task_id_blocks::1024           16                       # Occupied blocks per task id
system.cpu0.dcache.tags.age_task_id_blocks_1024::0           16                       # Occupied blocks per task id
system.cpu0.dcache.tags.occ_task_id_percent::1024            1                       # Percentage of cache occupancy per task id
system.cpu0.dcache.tags.tag_accesses         33634443                       # Number of tag accesses
system.cpu0.dcache.tags.data_accesses        33634443                       # Number of data accesses
system.cpu0.dcache.tags.power_state.pwrStateResidencyTicks::UNDEFINED  48456967500                       # Cumulative time (in ticks) in various power states
system.cpu0.power_state.pwrStateResidencyTicks::ON  48456967500                       # Cumulative time (in ticks) in various power states
system.cpu0.itb.walker.power_state.pwrStateResidencyTicks::UNDEFINED  48456967500                       # Cumulative time (in ticks) in various power states
system.cpu1.icache.demand_hits::.cpu1.inst      1748486                       # number of demand (read+write) hits
system.cpu1.icache.demand_hits::total         1748486                       # number of demand (read+write) hits
system.cpu1.icache.overall_hits::.cpu1.inst      1748486                       # number of overall hits
system.cpu1.icache.overall_hits::total        1748486                       # number of overall hits
system.cpu1.icache.demand_misses::.cpu1.inst         8886                       # number of demand (read+write) misses
system.cpu1.icache.demand_misses::total          8886                       # number of demand (read+write) misses
system.cpu1.icache.overall_misses::.cpu1.inst         8886                       # number of overall misses
system.cpu1.icache.overall_misses::total         8886                       # number of overall misses
system.cpu1.icache.demand_miss_latency::.cpu1.inst    229484500                       # number of demand (read+write) miss cycles
system.cpu1.icache.demand_miss_latency::total    229484500                       # number of demand (read+write) miss cycles
system.cpu1.icache.overall_miss_latency::.cpu1.inst    229484500                       # number of overall miss cycles
system.cpu1.icache.overall_miss_latency::total    229484500                       # number of overall miss cycles
system.cpu1.icache.demand_accesses::.cpu1.inst      1757372                       # number of demand (read+write) accesses
system.cpu1.icache.demand_accesses::total      1757372                       # number of demand (read+write) accesses
system.cpu1.icache.overall_accesses::.cpu1.inst      1757372                       # number of overall (read+write) accesses
system.cpu1.icache.overall_accesses::total      1757372                       # number of overall (read+write) accesses
system.cpu1.icache.demand_miss_rate::.cpu1.inst     0.005056                       # miss rate for demand accesses
system.cpu1.icache.demand_miss_rate::total     0.005056                       # miss rate for demand accesses
system.cpu1.icache.overall_miss_rate::.cpu1.inst     0.005056                       # miss rate for overall accesses
system.cpu1.icache.overall_miss_rate::total     0.005056                       # miss rate for overall accesses
system.cpu1.icache.demand_avg_miss_latency::.cpu1.inst 25825.399505                       # average overall miss latency
system.cpu1.icache.demand_avg_miss_latency::total 25825.399505                       # average overall miss latency
system.cpu1.icache.overall_avg_miss_latency::.cpu1.inst 25825.399505                       # average overall miss latency
system.cpu1.icache.overall_avg_miss_latency::total 25825.399505                       # average overall miss latency
system.cpu1.icache.blocked_cycles::no_mshrs            0                       # number of cycles access was blocked
system.cpu1.icache.blocked_cycles::no_targets            0                       # number of cycles access was blocked
system.cpu1.icache.blocked::no_mshrs                0                       # number of cycles access was blocked
system.cpu1.icache.blocked::no_targets              0                       # number of cycles access was blocked
system.cpu1.icache.avg_blocked_cycles::no_mshrs          nan                       # average number of cycles each access was blocked
system.cpu1.icache.avg_blocked_cycles::no_targets          nan                       # average number of cycles each access was blocked
system.cpu1.icache.writebacks::.writebacks         8870                       # number of writebacks
system.cpu1.icache.writebacks::total             8870                       # number of writebacks
system.cpu1.icache.demand_mshr_misses::.cpu1.inst         8886                       # number of demand (read+write) MSHR misses
system.cpu1.icache.demand_mshr_misses::total         8886                       # number of demand (read+write) MSHR misses
system.cpu1.icache.overall_mshr_misses::.cpu1.inst         8886                       # number of overall MSHR misses
system.cpu1.icache.overall_mshr_misses::total         8886                       # number of overall MSHR misses
system.cpu1.icache.demand_mshr_miss_latency::.cpu1.inst    220598500                       # number of demand (read+write) MSHR miss cycles
system.cpu1.icache.demand_mshr_miss_latency::total    220598500                       # number of demand (read+write) MSHR miss cycles
system.cpu1.icache.overall_mshr_miss_latency::.cpu1.inst    220598500                       # number of overall MSHR miss cycles
system.cpu1.icache.overall_mshr_miss_latency::total    220598500                       # number of overall MSHR miss cycles
system.cpu1.icache.demand_mshr_miss_rate::.cpu1.inst     0.005056                       # mshr miss rate for demand accesses
system.cpu1.icache.demand_mshr_miss_rate::total     0.005056                       # mshr miss rate for demand accesses
system.cpu1.icache.overall_mshr_miss_rate::.cpu1.inst     0.005056                       # mshr miss rate for overall accesses
system.cpu1.icache.overall_mshr_miss_rate::total     0.005056                       # mshr miss rate for overall accesses
system.cpu1.icache.demand_avg_mshr_miss_latency::.cpu1.inst 24825.399505                       # average overall mshr miss latency
system.cpu1.icache.demand_avg_mshr_miss_latency::total 24825.399505                       # average overall mshr miss latency
system.cpu1.icache.overall_avg_mshr_miss_latency::.cpu1.inst 24825.399505                       # average overall mshr miss latency
system.cpu1.icache.overall_avg_mshr_miss_latency::total 24825.399505                       # average overall mshr miss latency
system.cpu1.icache.replacements                  8870                       # number of replacements
system.cpu1.icache.ReadReq_hits::.cpu1.inst      1748486                       # number of ReadReq hits
system.cpu1.icache.ReadReq_hits::total        1748486                       # number of ReadReq hits
system.cpu1.icache.ReadReq_misses::.cpu1.inst         8886                       # number of ReadReq misses
system.cpu1.icache.ReadReq_misses::total         8886                       # number of ReadReq misses
system.cpu1.icache.ReadReq_miss_latency::.cpu1.inst    229484500                       # number of ReadReq miss cycles
system.cpu1.icache.ReadReq_miss_latency::total    229484500                       # number of ReadReq miss cycles
system.cpu1.icache.ReadReq_accesses::.cpu1.inst      1757372                       # number of ReadReq accesses(hits+misses)
system.cpu1.icache.ReadReq_accesses::total      1757372                       # number of ReadReq accesses(hits+misses)
system.cpu1.icache.ReadReq_miss_rate::.cpu1.inst     0.005056                       # miss rate for ReadReq accesses
system.cpu1.icache.ReadReq_miss_rate::total     0.005056                       # miss rate for ReadReq accesses
system.cpu1.icache.ReadReq_avg_miss_latency::.cpu1.inst 25825.399505                       # average ReadReq miss latency
system.cpu1.icache.ReadReq_avg_miss_latency::total 25825.399505                       # average ReadReq miss latency
system.cpu1.icache.ReadReq_mshr_misses::.cpu1.inst         8886                       # number of ReadReq MSHR misses
system.cpu1.icache.ReadReq_mshr_misses::total         8886                       # number of ReadReq MSHR misses
system.cpu1.icache.ReadReq_mshr_miss_latency::.cpu1.inst    220598500                       # number of ReadReq MSHR miss cycles
system.cpu1.icache.ReadReq_mshr_miss_latency::total    220598500                       # number of ReadReq MSHR miss cycles
system.cpu1.icache.ReadReq_mshr_miss_rate::.cpu1.inst     0.005056                       # mshr miss rate for ReadReq accesses
system.cpu1.icache.ReadReq_mshr_miss_rate::total     0.005056                       # mshr miss rate for ReadReq accesses
system.cpu1.icache.ReadReq_avg_mshr_miss_latency::.cpu1.inst 24825.399505                       # average ReadReq mshr miss latency
system.cpu1.icache.ReadReq_avg_mshr_miss_latency::total 24825.399505                       # average ReadReq mshr miss latency
system.cpu1.icache.power_state.pwrStateResidencyTicks::UNDEFINED  48456967500                       # Cumulative time (in ticks) in various power states
system.cpu1.icache.tags.tagsinuse           15.999701                       # Cycle average of tags in use
system.cpu1.icache.tags.total_refs            1757372                       # Total number of references to valid blocks.
system.cpu1.icache.tags.sampled_refs             8886                       # Sample count of references to valid blocks.
system.cpu1.icache.tags.avg_refs           197.768625                       # Average number of references to valid blocks.
system.cpu1.icache.tags.warmup_cycle            92500                       # Cycle when the warmup percentage was hit.
system.cpu1.icache.tags.occ_blocks::.cpu1.inst    15.999701                       # Average occupied blocks per requestor
system.cpu1.icache.tags.occ_percent::.cpu1.inst     0.999981                       # Average percentage of cache occupancy
system.cpu1.icache.tags.occ_percent::total     0.999981                       # Average percentage of cache occupancy
system.cpu1.icache.tags.occ_task_id_blocks::1024           16                       # Occupied blocks per task id
system.cpu1.icache.tags.age_task_id_blocks_1024::4           16                       # Occupied blocks per task id
system.cpu1.icache.tags.occ_task_id_percent::1024            1                       # Percentage of cache occupancy per task id
system.cpu1.icache.tags.tag_accesses         14067862                       # Number of tag accesses
system.cpu1.icache.tags.data_accesses        14067862                       # Number of data accesses
system.cpu1.icache.tags.power_state.pwrStateResidencyTicks::UNDEFINED  48456967500                       # Cumulative time (in ticks) in various power states
system.cpu1.dtb.walker.power_state.pwrStateResidencyTicks::UNDEFINED  48456967500                       # Cumulative time (in ticks) in various power states
system.cpu1.interrupts.clk_domain.clock          8000                       # Clock period in ticks
system.cpu1.itb_walker_cache.blocked_cycles::no_mshrs            0                       # number of cycles access was blocked
system.cpu1.itb_walker_cache.blocked_cycles::no_targets            0                       # number of cycles access was blocked
system.cpu1.itb_walker_cache.blocked::no_mshrs            0                       # number of cycles access was blocked
system.cpu1.itb_walker_cache.blocked::no_targets            0                       # number of cycles access was blocked
system.cpu1.itb_walker_cache.avg_blocked_cycles::no_mshrs          nan                       # average number of cycles each access was blocked
system.cpu1.itb_walker_cache.avg_blocked_cycles::no_targets          nan                       # average number of cycles each access was blocked
system.cpu1.itb_walker_cache.replacements            0                       # number of replacements
system.cpu1.itb_walker_cache.power_state.pwrStateResidencyTicks::UNDEFINED  48456967500                       # Cumulative time (in ticks) in various power states
system.cpu1.itb_walker_cache.tags.tagsinuse            0                       # Cycle average of tags in use
system.cpu1.itb_walker_cache.tags.total_refs            0                       # Total number of references to valid blocks.
system.cpu1.itb_walker_cache.tags.sampled_refs            0                       # Sample count of references to valid blocks.
system.cpu1.itb_walker_cache.tags.avg_refs          nan                       # Average number of references to valid blocks.
system.cpu1.itb_walker_cache.tags.warmup_cycle            0                       # Cycle when the warmup percentage was hit.
system.cpu1.itb_walker_cache.tags.tag_accesses            0                       # Number of tag accesses
system.cpu1.itb_walker_cache.tags.data_accesses            0                       # Number of data accesses
system.cpu1.itb_walker_cache.tags.power_state.pwrStateResidencyTicks::UNDEFINED  48456967500                       # Cumulative time (in ticks) in various power states
system.cpu1.dtb_walker_cache.blocked_cycles::no_mshrs            0                       # number of cycles access was blocked
system.cpu1.dtb_walker_cache.blocked_cycles::no_targets            0                       # number of cycles access was blocked
system.cpu1.dtb_walker_cache.blocked::no_mshrs            0                       # number of cycles access was blocked
system.cpu1.dtb_walker_cache.blocked::no_targets            0                       # number of cycles access was blocked
system.cpu1.dtb_walker_cache.avg_blocked_cycles::no_mshrs          nan                       # average number of cycles each access was blocked
system.cpu1.dtb_walker_cache.avg_blocked_cycles::no_targets          nan                       # average number of cycles each access was blocked
system.cpu1.dtb_walker_cache.replacements            0                       # number of replacements
system.cpu1.dtb_walker_cache.power_state.pwrStateResidencyTicks::UNDEFINED  48456967500                       # Cumulative time (in ticks) in various power states
system.cpu1.dtb_walker_cache.tags.tagsinuse            0                       # Cycle average of tags in use
system.cpu1.dtb_walker_cache.tags.total_refs            0                       # Total number of references to valid blocks.
system.cpu1.dtb_walker_cache.tags.sampled_refs            0                       # Sample count of references to valid blocks.
system.cpu1.dtb_walker_cache.tags.avg_refs          nan                       # Average number of references to valid blocks.
system.cpu1.dtb_walker_cache.tags.warmup_cycle            0                       # Cycle when the warmup percentage was hit.
system.cpu1.dtb_walker_cache.tags.tag_accesses            0                       # Number of tag accesses
system.cpu1.dtb_walker_cache.tags.data_accesses            0                       # Number of data accesses
system.cpu1.dtb_walker_cache.tags.power_state.pwrStateResidencyTicks::UNDEFINED  48456967500                       # Cumulative time (in ticks) in various power states
system.cpu1.dcache.demand_hits::.cpu1.data      3868977                       # number of demand (read+write) hits
system.cpu1.dcache.demand_hits::total         3868977                       # number of demand (read+write) hits
system.cpu1.dcache.overall_hits::.cpu1.data      3868977                       # number of overall hits
system.cpu1.dcache.overall_hits::total        3868977                       # number of overall hits
system.cpu1.dcache.demand_misses::.cpu1.data      1046990                       # number of demand (read+write) misses
system.cpu1.dcache.demand_misses::total       1046990                       # number of demand (read+write) misses
system.cpu1.dcache.overall_misses::.cpu1.data      1046990                       # number of overall misses
system.cpu1.dcache.overall_misses::total      1046990                       # number of overall misses
system.cpu1.dcache.demand_miss_latency::.cpu1.data  86328563000                       # number of demand (read+write) miss cycles
system.cpu1.dcache.demand_miss_latency::total  86328563000                       # number of demand (read+write) miss cycles
system.cpu1.dcache.overall_miss_latency::.cpu1.data  86328563000                       # number of overall miss cycles
system.cpu1.dcache.overall_miss_latency::total  86328563000                       # number of overall miss cycles
system.cpu1.dcache.demand_accesses::.cpu1.data      4915967                       # number of demand (read+write) accesses
system.cpu1.dcache.demand_accesses::total      4915967                       # number of demand (read+write) accesses
system.cpu1.dcache.overall_accesses::.cpu1.data      4915967                       # number of overall (read+write) accesses
system.cpu1.dcache.overall_accesses::total      4915967                       # number of overall (read+write) accesses
system.cpu1.dcache.demand_miss_rate::.cpu1.data     0.212977                       # miss rate for demand accesses
system.cpu1.dcache.demand_miss_rate::total     0.212977                       # miss rate for demand accesses
system.cpu1.dcache.overall_miss_rate::.cpu1.data     0.212977                       # miss rate for overall accesses
system.cpu1.dcache.overall_miss_rate::total     0.212977                       # miss rate for overall accesses
system.cpu1.dcache.demand_avg_miss_latency::.cpu1.data 82454.047317                       # average overall miss latency
system.cpu1.dcache.demand_avg_miss_latency::total 82454.047317                       # average overall miss latency
system.cpu1.dcache.overall_avg_miss_latency::.cpu1.data 82454.047317                       # average overall miss latency
system.cpu1.dcache.overall_avg_miss_latency::total 82454.047317                       # average overall miss latency
system.cpu1.dcache.blocked_cycles::no_mshrs            0                       # number of cycles access was blocked
system.cpu1.dcache.blocked_cycles::no_targets            0                       # number of cycles access was blocked
system.cpu1.dcache.blocked::no_mshrs                0                       # number of cycles access was blocked
system.cpu1.dcache.blocked::no_targets              0                       # number of cycles access was blocked
system.cpu1.dcache.avg_blocked_cycles::no_mshrs          nan                       # average number of cycles each access was blocked
system.cpu1.dcache.avg_blocked_cycles::no_targets          nan                       # average number of cycles each access was blocked
system.cpu1.dcache.writebacks::.writebacks       518796                       # number of writebacks
system.cpu1.dcache.writebacks::total           518796                       # number of writebacks
system.cpu1.dcache.demand_mshr_hits::.cpu1.data       514268                       # number of demand (read+write) MSHR hits
system.cpu1.dcache.demand_mshr_hits::total       514268                       # number of demand (read+write) MSHR hits
system.cpu1.dcache.overall_mshr_hits::.cpu1.data       514268                       # number of overall MSHR hits
system.cpu1.dcache.overall_mshr_hits::total       514268                       # number of overall MSHR hits
system.cpu1.dcache.demand_mshr_misses::.cpu1.data       532722                       # number of demand (read+write) MSHR misses
system.cpu1.dcache.demand_mshr_misses::total       532722                       # number of demand (read+write) MSHR misses
system.cpu1.dcache.overall_mshr_misses::.cpu1.data       532722                       # number of overall MSHR misses
system.cpu1.dcache.overall_mshr_misses::total       532722                       # number of overall MSHR misses
system.cpu1.dcache.demand_mshr_miss_latency::.cpu1.data  42836690000                       # number of demand (read+write) MSHR miss cycles
system.cpu1.dcache.demand_mshr_miss_latency::total  42836690000                       # number of demand (read+write) MSHR miss cycles
system.cpu1.dcache.overall_mshr_miss_latency::.cpu1.data  42836690000                       # number of overall MSHR miss cycles
system.cpu1.dcache.overall_mshr_miss_latency::total  42836690000                       # number of overall MSHR miss cycles
system.cpu1.dcache.demand_mshr_miss_rate::.cpu1.data     0.108366                       # mshr miss rate for demand accesses
system.cpu1.dcache.demand_mshr_miss_rate::total     0.108366                       # mshr miss rate for demand accesses
system.cpu1.dcache.overall_mshr_miss_rate::.cpu1.data     0.108366                       # mshr miss rate for overall accesses
system.cpu1.dcache.overall_mshr_miss_rate::total     0.108366                       # mshr miss rate for overall accesses
system.cpu1.dcache.demand_avg_mshr_miss_latency::.cpu1.data 80410.964818                       # average overall mshr miss latency
system.cpu1.dcache.demand_avg_mshr_miss_latency::total 80410.964818                       # average overall mshr miss latency
system.cpu1.dcache.overall_avg_mshr_miss_latency::.cpu1.data 80410.964818                       # average overall mshr miss latency
system.cpu1.dcache.overall_avg_mshr_miss_latency::total 80410.964818                       # average overall mshr miss latency
system.cpu1.dcache.replacements                532705                       # number of replacements
system.cpu1.dcache.ReadReq_hits::.cpu1.data       699363                       # number of ReadReq hits
system.cpu1.dcache.ReadReq_hits::total         699363                       # number of ReadReq hits
system.cpu1.dcache.ReadReq_misses::.cpu1.data        16394                       # number of ReadReq misses
system.cpu1.dcache.ReadReq_misses::total        16394                       # number of ReadReq misses
system.cpu1.dcache.ReadReq_miss_latency::.cpu1.data    413407500                       # number of ReadReq miss cycles
system.cpu1.dcache.ReadReq_miss_latency::total    413407500                       # number of ReadReq miss cycles
system.cpu1.dcache.ReadReq_accesses::.cpu1.data       715757                       # number of ReadReq accesses(hits+misses)
system.cpu1.dcache.ReadReq_accesses::total       715757                       # number of ReadReq accesses(hits+misses)
system.cpu1.dcache.ReadReq_miss_rate::.cpu1.data     0.022904                       # miss rate for ReadReq accesses
system.cpu1.dcache.ReadReq_miss_rate::total     0.022904                       # miss rate for ReadReq accesses
system.cpu1.dcache.ReadReq_avg_miss_latency::.cpu1.data 25217.000122                       # average ReadReq miss latency
system.cpu1.dcache.ReadReq_avg_miss_latency::total 25217.000122                       # average ReadReq miss latency
system.cpu1.dcache.ReadReq_mshr_hits::.cpu1.data          303                       # number of ReadReq MSHR hits
system.cpu1.dcache.ReadReq_mshr_hits::total          303                       # number of ReadReq MSHR hits
system.cpu1.dcache.ReadReq_mshr_misses::.cpu1.data        16091                       # number of ReadReq MSHR misses
system.cpu1.dcache.ReadReq_mshr_misses::total        16091                       # number of ReadReq MSHR misses
system.cpu1.dcache.ReadReq_mshr_miss_latency::.cpu1.data    384274500                       # number of ReadReq MSHR miss cycles
system.cpu1.dcache.ReadReq_mshr_miss_latency::total    384274500                       # number of ReadReq MSHR miss cycles
system.cpu1.dcache.ReadReq_mshr_miss_rate::.cpu1.data     0.022481                       # mshr miss rate for ReadReq accesses
system.cpu1.dcache.ReadReq_mshr_miss_rate::total     0.022481                       # mshr miss rate for ReadReq accesses
system.cpu1.dcache.ReadReq_avg_mshr_miss_latency::.cpu1.data 23881.331179                       # average ReadReq mshr miss latency
system.cpu1.dcache.ReadReq_avg_mshr_miss_latency::total 23881.331179                       # average ReadReq mshr miss latency
system.cpu1.dcache.WriteReq_hits::.cpu1.data      3169614                       # number of WriteReq hits
system.cpu1.dcache.WriteReq_hits::total       3169614                       # number of WriteReq hits
system.cpu1.dcache.WriteReq_misses::.cpu1.data      1030596                       # number of WriteReq misses
system.cpu1.dcache.WriteReq_misses::total      1030596                       # number of WriteReq misses
system.cpu1.dcache.WriteReq_miss_latency::.cpu1.data  85915155500                       # number of WriteReq miss cycles
system.cpu1.dcache.WriteReq_miss_latency::total  85915155500                       # number of WriteReq miss cycles
system.cpu1.dcache.WriteReq_accesses::.cpu1.data      4200210                       # number of WriteReq accesses(hits+misses)
system.cpu1.dcache.WriteReq_accesses::total      4200210                       # number of WriteReq accesses(hits+misses)
system.cpu1.dcache.WriteReq_miss_rate::.cpu1.data     0.245368                       # miss rate for WriteReq accesses
[...]
system.mem_ctrls.bytesPerActivate::stdev   380.754558                       # Bytes accessed per row activation
system.mem_ctrls.bytesPerActivate::0-127        57242     27.28%     27.28% # Bytes accessed per row activation
system.mem_ctrls.bytesPerActivate::128-255        50672     24.15%     51.42% # Bytes accessed per row activation
system.mem_ctrls.bytesPerActivate::256-383        21714     10.35%     61.77% # Bytes accessed per row activation
system.mem_ctrls.bytesPerActivate::384-511        12497      5.95%     67.72% # Bytes accessed per row activation
system.mem_ctrls.bytesPerActivate::512-639         8417      4.01%     71.73% # Bytes accessed per row activation
system.mem_ctrls.bytesPerActivate::640-767         4218      2.01%     73.74% # Bytes accessed per row activation
system.mem_ctrls.bytesPerActivate::768-895         3710      1.77%     75.51% # Bytes accessed per row activation
system.mem_ctrls.bytesPerActivate::896-1023         3997      1.90%     77.42% # Bytes accessed per row activation
system.mem_ctrls.bytesPerActivate::1024-1151        47398     22.58%    100.00% # Bytes accessed per row activation
system.mem_ctrls.bytesPerActivate::total       209865                       # Bytes accessed per row activation
system.mem_ctrls.rdPerTurnAround::samples        35086                       # Reads before turning the bus around for writes
system.mem_ctrls.rdPerTurnAround::mean      22.035940                       # Reads before turning the bus around for writes
system.mem_ctrls.rdPerTurnAround::gmean     21.706639                       # Reads before turning the bus around for writes
system.mem_ctrls.rdPerTurnAround::stdev      7.352253                       # Reads before turning the bus around for writes
system.mem_ctrls.rdPerTurnAround::0-31          34840     99.30%     99.30% # Reads before turning the bus around for writes
system.mem_ctrls.rdPerTurnAround::32-63           160      0.46%     99.75% # Reads before turning the bus around for writes
system.mem_ctrls.rdPerTurnAround::64-95            45      0.13%     99.88% # Reads before turning the bus around for writes
system.mem_ctrls.rdPerTurnAround::96-127           16      0.05%     99.93% # Reads before turning the bus around for writes
system.mem_ctrls.rdPerTurnAround::128-159           11      0.03%     99.96% # Reads before turning the bus around for writes
system.mem_ctrls.rdPerTurnAround::160-191            4      0.01%     99.97% # Reads before turning the bus around for writes
system.mem_ctrls.rdPerTurnAround::192-223            5      0.01%     99.99% # Reads before turning the bus around for writes
system.mem_ctrls.rdPerTurnAround::224-255            3      0.01%     99.99% # Reads before turning the bus around for writes
system.mem_ctrls.rdPerTurnAround::256-287            1      0.00%    100.00% # Reads before turning the bus around for writes
system.mem_ctrls.rdPerTurnAround::864-895            1      0.00%    100.00% # Reads before turning the bus around for writes
system.mem_ctrls.rdPerTurnAround::total         35086                       # Reads before turning the bus around for writes
system.mem_ctrls.wrPerTurnAround::samples        35086                       # Writes before turning the bus around for reads
system.mem_ctrls.wrPerTurnAround::mean      16.043636                       # Writes before turning the bus around for reads
system.mem_ctrls.wrPerTurnAround::gmean     16.040276                       # Writes before turning the bus around for reads
system.mem_ctrls.wrPerTurnAround::stdev      0.347068                       # Writes before turning the bus around for reads
system.mem_ctrls.wrPerTurnAround::16            34487     98.29%     98.29% # Writes before turning the bus around for reads
system.mem_ctrls.wrPerTurnAround::17               81      0.23%     98.52% # Writes before turning the bus around for reads
system.mem_ctrls.wrPerTurnAround::18              135      0.38%     98.91% # Writes before turning the bus around for reads
system.mem_ctrls.wrPerTurnAround::19              356      1.01%     99.92% # Writes before turning the bus around for reads
system.mem_ctrls.wrPerTurnAround::20               23      0.07%     99.99% # Writes before turning the bus around for reads
system.mem_ctrls.wrPerTurnAround::21                4      0.01%    100.00% # Writes before turning the bus around for reads
system.mem_ctrls.wrPerTurnAround::total         35086                       # Writes before turning the bus around for reads
system.mem_ctrls.bytesReadDRAM               49482304                       # Total number of bytes read from DRAM
system.mem_ctrls.bytesReadWrQ                  526336                       # Total number of bytes read from write queue
system.mem_ctrls.bytesWritten                36026048                       # Total number of bytes written to DRAM
system.mem_ctrls.bytesReadSys                50008640                       # Total read bytes from the system interface side
system.mem_ctrls.bytesWrittenSys             36040128                       # Total written bytes from the system interface side
system.mem_ctrls.avgRdBW                      1021.16                       # Average DRAM read bandwidth in MiByte/s
system.mem_ctrls.avgWrBW                       743.46                       # Average achieved write bandwidth in MiByte/s
system.mem_ctrls.avgRdBWSys                   1032.02                       # Average system read bandwidth in MiByte/s
system.mem_ctrls.avgWrBWSys                    743.76                       # Average system write bandwidth in MiByte/s
system.mem_ctrls.peakBW                      12800.00                       # Theoretical peak bandwidth in MiByte/s
system.mem_ctrls.busUtil                        13.79                       # Data bus utilization in percentage
system.mem_ctrls.busUtilRead                     7.98                       # Data bus utilization in percentage for reads
system.mem_ctrls.busUtilWrite                    5.81                       # Data bus utilization in percentage for writes
system.mem_ctrls.totGap                   48456903500                       # Total gap between requests
system.mem_ctrls.avgGap                      36040.51                       # Average gap between requests
system.mem_ctrls.masterReadBytes::.cpu0.inst     12033152                       # Per-master bytes read from memory
system.mem_ctrls.masterReadBytes::.cpu0.data      4445248                       # Per-master bytes read from memory
system.mem_ctrls.masterReadBytes::.cpu1.inst       100096                       # Per-master bytes read from memory
system.mem_ctrls.masterReadBytes::.cpu1.data     32903808                       # Per-master bytes read from memory
system.mem_ctrls.masterWriteBytes::.writebacks     36026048                       # Per-master bytes write to memory
system.mem_ctrls.masterReadRate::.cpu0.inst 248326559.023735851049                       # Per-master bytes read from memory rate (Bytes/sec)
system.mem_ctrls.masterReadRate::.cpu0.data 91735992.352389767766                       # Per-master bytes read from memory rate (Bytes/sec)
system.mem_ctrls.masterReadRate::.cpu1.inst 2065667.852615828626                       # Per-master bytes read from memory rate (Bytes/sec)
system.mem_ctrls.masterReadRate::.cpu1.data 679031513.889101624489                       # Per-master bytes read from memory rate (Bytes/sec)
system.mem_ctrls.masterWriteRate::.writebacks 743464765.928656101227                       # Per-master bytes write to memory rate (Bytes/sec)
system.mem_ctrls.masterReadAccesses::.cpu0.inst       188018                       # Per-master read serviced memory accesses
system.mem_ctrls.masterReadAccesses::.cpu0.data        77669                       # Per-master read serviced memory accesses
system.mem_ctrls.masterReadAccesses::.cpu1.inst         1564                       # Per-master read serviced memory accesses
system.mem_ctrls.masterReadAccesses::.cpu1.data       514134                       # Per-master read serviced memory accesses
system.mem_ctrls.masterWriteAccesses::.writebacks       563127                       # Per-master write serviced memory accesses
system.mem_ctrls.masterReadTotalLat::.cpu0.inst   6463551000                       # Per-master read total memory access latency
system.mem_ctrls.masterReadTotalLat::.cpu0.data   2609683250                       # Per-master read total memory access latency
system.mem_ctrls.masterReadTotalLat::.cpu1.inst     46259250                       # Per-master read total memory access latency
system.mem_ctrls.masterReadTotalLat::.cpu1.data  15382853500                       # Per-master read total memory access latency
system.mem_ctrls.masterWriteTotalLat::.writebacks 1203417119750                       # Per-master write total memory access latency
system.mem_ctrls.masterReadAvgLat::.cpu0.inst     34377.30                       # Per-master read average memory access latency
system.mem_ctrls.masterReadAvgLat::.cpu0.data     33600.06                       # Per-master read average memory access latency
system.mem_ctrls.masterReadAvgLat::.cpu1.inst     29577.53                       # Per-master read average memory access latency
system.mem_ctrls.masterReadAvgLat::.cpu1.data     29919.93                       # Per-master read average memory access latency
system.mem_ctrls.masterWriteAvgLat::.writebacks   2137026.14                       # Per-master write average memory access latency
system.mem_ctrls.pageHitRate                    84.29                       # Row buffer hit rate, read and write combined
system.mem_ctrls.rank1.actEnergy            860727000                       # Energy for activate commands per rank (pJ)
system.mem_ctrls.rank1.preEnergy            457479660                       # Energy for precharge commands per rank (pJ)
system.mem_ctrls.rank1.readEnergy          3093462120                       # Energy for read commands per rank (pJ)
system.mem_ctrls.rank1.writeEnergy         1471899060                       # Energy for write commands per rank (pJ)
system.mem_ctrls.rank1.refreshEnergy     3824904720.000000                       # Energy for refresh commands per rank (pJ)
system.mem_ctrls.rank1.actBackEnergy      21792510750                       # Energy for active background per rank (pJ)
system.mem_ctrls.rank1.preBackEnergy        255887520                       # Energy for precharge background per rank (pJ)
system.mem_ctrls.rank1.actPowerDownEnergy            0                       # Energy for active power-down per rank (pJ)
system.mem_ctrls.rank1.prePowerDownEnergy            0                       # Energy for precharge power-down per rank (pJ)
system.mem_ctrls.rank1.selfRefreshEnergy            0                       # Energy for self refresh per rank (pJ)
system.mem_ctrls.rank1.totalEnergy        31756870830                       # Total energy per rank (pJ)
system.mem_ctrls.rank1.averagePower        655.362324                       # Core power per rank (mW)
system.mem_ctrls.rank1.totalIdleTime                0                       # Total Idle time Per DRAM Rank
system.mem_ctrls.rank1.memoryStateTime::IDLE    473255250                       # Time in different power states
system.mem_ctrls.rank1.memoryStateTime::REF   1617980000                       # Time in different power states
system.mem_ctrls.rank1.memoryStateTime::SREF            0                       # Time in different power states
system.mem_ctrls.rank1.memoryStateTime::PRE_PDN            0                       # Time in different power states
system.mem_ctrls.rank1.memoryStateTime::ACT  46365732250                       # Time in different power states
system.mem_ctrls.rank1.memoryStateTime::ACT_PDN            0                       # Time in different power states
system.mem_ctrls.rank0.actEnergy            637723380                       # Energy for activate commands per rank (pJ)
system.mem_ctrls.rank0.preEnergy            338958015                       # Energy for precharge commands per rank (pJ)
system.mem_ctrls.rank0.readEnergy          2426907420                       # Energy for read commands per rank (pJ)
system.mem_ctrls.rank0.writeEnergy         1466475480                       # Energy for write commands per rank (pJ)
system.mem_ctrls.rank0.refreshEnergy     3824904720.000000                       # Energy for refresh commands per rank (pJ)
system.mem_ctrls.rank0.actBackEnergy      20840906010                       # Energy for active background per rank (pJ)
system.mem_ctrls.rank0.preBackEnergy       1057238880                       # Energy for precharge background per rank (pJ)
system.mem_ctrls.rank0.actPowerDownEnergy            0                       # Energy for active power-down per rank (pJ)
system.mem_ctrls.rank0.prePowerDownEnergy            0                       # Energy for precharge power-down per rank (pJ)
system.mem_ctrls.rank0.selfRefreshEnergy            0                       # Energy for self refresh per rank (pJ)
system.mem_ctrls.rank0.totalEnergy        30593113905                       # Total energy per rank (pJ)
system.mem_ctrls.rank0.averagePower        631.346027                       # Core power per rank (mW)
system.mem_ctrls.rank0.totalIdleTime                0                       # Total Idle time Per DRAM Rank
system.mem_ctrls.rank0.memoryStateTime::IDLE   2535030750                       # Time in different power states
system.mem_ctrls.rank0.memoryStateTime::REF   1617980000                       # Time in different power states
system.mem_ctrls.rank0.memoryStateTime::SREF            0                       # Time in different power states
system.mem_ctrls.rank0.memoryStateTime::PRE_PDN            0                       # Time in different power states
system.mem_ctrls.rank0.memoryStateTime::ACT  44303956750                       # Time in different power states
system.mem_ctrls.rank0.memoryStateTime::ACT_PDN            0                       # Time in different power states
system.mem_ctrls.power_state.pwrStateResidencyTicks::UNDEFINED  48456967500                       # Cumulative time (in ticks) in various power states
system.cpu_clk_domain.clock                       500                       # Clock period in ticks
system.tol2bus.trans_dist::ReadResp           2090814                       # Transaction distribution
system.tol2bus.trans_dist::WritebackDirty      1462751                       # Transaction distribution
system.tol2bus.trans_dist::WritebackClean      1626246                       # Transaction distribution
system.tol2bus.trans_dist::CleanEvict          487550                       # Transaction distribution
system.tol2bus.trans_dist::ReadExReq           705285                       # Transaction distribution
system.tol2bus.trans_dist::ReadExResp          705284                       # Transaction distribution
system.tol2bus.trans_dist::ReadCleanReq       1626278                       # Transaction distribution
system.tol2bus.trans_dist::ReadSharedReq       464536                       # Transaction distribution
system.tol2bus.pkt_count_system.cpu0.icache.mem_side::system.l2.cpu_side      4852160                       # Packet count per connected master and slave (bytes)
system.tol2bus.pkt_count_system.cpu0.dcache.mem_side::system.l2.cpu_side      1911281                       # Packet count per connected master and slave (bytes)
system.tol2bus.pkt_count_system.cpu1.icache.mem_side::system.l2.cpu_side        26642                       # Packet count per connected master and slave (bytes)
system.tol2bus.pkt_count_system.cpu1.dcache.mem_side::system.l2.cpu_side      1598148                       # Packet count per connected master and slave (bytes)
system.tol2bus.pkt_count::total               8388231                       # Packet count per connected master and slave (bytes)
system.tol2bus.pkt_size_system.cpu0.icache.mem_side::system.l2.cpu_side    207025152                       # Cumulative packet size per connected master and slave (bytes)
system.tol2bus.pkt_size_system.cpu0.dcache.mem_side::system.l2.cpu_side     65147328                       # Cumulative packet size per connected master and slave (bytes)
system.tol2bus.pkt_size_system.cpu1.icache.mem_side::system.l2.cpu_side      1136384                       # Cumulative packet size per connected master and slave (bytes)
system.tol2bus.pkt_size_system.cpu1.dcache.mem_side::system.l2.cpu_side     67297088                       # Cumulative packet size per connected master and slave (bytes)
system.tol2bus.pkt_size::total              340605952                       # Cumulative packet size per connected master and slave (bytes)
system.tol2bus.snoops                          780513                       # Total snoops (count)
system.tol2bus.snoopTraffic                  36040128                       # Total snoop traffic (bytes)
system.tol2bus.snoop_fanout::samples          3576612                       # Request fanout histogram
system.tol2bus.snoop_fanout::mean            0.000055                       # Request fanout histogram
system.tol2bus.snoop_fanout::stdev           0.007440                       # Request fanout histogram
system.tol2bus.snoop_fanout::underflows             0      0.00%      0.00% # Request fanout histogram
system.tol2bus.snoop_fanout::0                3576414     99.99%     99.99% # Request fanout histogram
system.tol2bus.snoop_fanout::1                    198      0.01%    100.00% # Request fanout histogram
system.tol2bus.snoop_fanout::2                      0      0.00%    100.00% # Request fanout histogram
system.tol2bus.snoop_fanout::3                      0      0.00%    100.00% # Request fanout histogram
system.tol2bus.snoop_fanout::4                      0      0.00%    100.00% # Request fanout histogram
system.tol2bus.snoop_fanout::5                      0      0.00%    100.00% # Request fanout histogram
system.tol2bus.snoop_fanout::6                      0      0.00%    100.00% # Request fanout histogram
system.tol2bus.snoop_fanout::7                      0      0.00%    100.00% # Request fanout histogram
system.tol2bus.snoop_fanout::8                      0      0.00%    100.00% # Request fanout histogram
system.tol2bus.snoop_fanout::overflows              0      0.00%    100.00% # Request fanout histogram
system.tol2bus.snoop_fanout::min_value              0                       # Request fanout histogram
system.tol2bus.snoop_fanout::max_value              1                       # Request fanout histogram
system.tol2bus.snoop_fanout::total            3576612                       # Request fanout histogram
system.tol2bus.reqLayer0.occupancy         5321936500                       # Layer occupancy (ticks)
system.tol2bus.reqLayer0.utilization             11.0                       # Layer utilization (%)
system.tol2bus.respLayer5.occupancy         805254628                       # Layer occupancy (ticks)
system.tol2bus.respLayer5.utilization             1.7                       # Layer utilization (%)
system.tol2bus.respLayer4.occupancy          13342473                       # Layer occupancy (ticks)
system.tol2bus.respLayer4.utilization             0.0                       # Layer utilization (%)
system.tol2bus.respLayer1.occupancy         955709378                       # Layer occupancy (ticks)
system.tol2bus.respLayer1.utilization             2.0                       # Layer utilization (%)
system.tol2bus.respLayer0.occupancy        2426136902                       # Layer occupancy (ticks)
system.tol2bus.respLayer0.utilization             5.0                       # Layer utilization (%)
system.tol2bus.power_state.pwrStateResidencyTicks::UNDEFINED  48456967500                       # Cumulative time (in ticks) in various power states

---------- End Simulation Statistics   ----------
