
---------- Begin Simulation Statistics ----------
final_tick                                33180858500                       # Number of ticks from beginning of simulation (restored from checkpoints and never reset)
host_inst_rate                                 212395                       # Simulator instruction rate (inst/s)
host_mem_usage                                4437596                       # Number of bytes of host memory used
host_op_rate                                   374906                       # Simulator op (including micro ops) rate (op/s)
host_seconds                                    93.33                       # Real time elapsed on the host
host_tick_rate                              355508891                       # Simulator tick rate (ticks/s)
sim_freq                                 1000000000000                       # Frequency of simulated ticks
sim_insts                                    19823516                       # Number of instructions simulated
sim_ops                                      34991237                       # Number of ops (including micro ops) simulated
sim_seconds                                  0.033181                       # Number of seconds simulated
sim_ticks                                 33180858500                       # Number of ticks simulated
system.cpu0.branchPred.BTBCorrect                   0                       # Number of correct BTB predictions (this stat may not work properly.
system.cpu0.branchPred.BTBHitPct                  nan                       # BTB Hit Percentage
system.cpu0.branchPred.BTBHits                      0                       # Number of BTB hits
system.cpu0.branchPred.BTBLookups                   0                       # Number of BTB lookups
system.cpu0.branchPred.RASInCorrect                 0                       # Number of incorrect RAS predictions.
system.cpu0.branchPred.condIncorrect               39                       # Number of conditional branches incorrect
system.cpu0.branchPred.condPredicted               80                       # Number of conditional branches predicted
system.cpu0.branchPred.indirectHits                 0                       # Number of indirect target hits.
system.cpu0.branchPred.indirectLookups             24                       # Number of indirect predictor lookups.
system.cpu0.branchPred.indirectMisses              24                       # Number of indirect misses.
system.cpu0.branchPred.lookups                     80                       # Number of BP lookups
system.cpu0.branchPred.usedRAS                      0                       # Number of times the RAS was used to get a target.
system.cpu0.branchPredindirectMispredicted           15                       # Number of mispredicted indirect branches.
system.cpu0.committedInsts                   10000000                       # Number of instructions committed
system.cpu0.committedOps                     18916380                       # Number of ops (including micro ops) committed
system.cpu0.cpi                              6.636172                       # CPI: cycles per instruction
system.cpu0.discardedOps                      3503771                       # Number of ops (including micro ops) which were discarded before commit
system.cpu0.dtb.rdAccesses                    2501868                       # TLB accesses on read requests
system.cpu0.dtb.rdMisses                        32889                       # TLB misses on read requests
system.cpu0.dtb.wrAccesses                    1828766                       # TLB accesses on write requests
system.cpu0.dtb.wrMisses                         1222                       # TLB misses on write requests
system.cpu0.fetch2.amo_instructions                 0                       # Number of memory atomic instructions successfully decoded
system.cpu0.fetch2.fp_instructions                  0                       # Number of floating point instructions successfully decoded
system.cpu0.fetch2.int_instructions                 8                       # Number of integer instructions successfully decoded
system.cpu0.fetch2.load_instructions                0                       # Number of memory load instructions successfully decoded
system.cpu0.fetch2.store_instructions               0                       # Number of memory store instructions successfully decoded
system.cpu0.fetch2.vec_instructions                 0                       # Number of SIMD instructions successfully decoded
system.cpu0.idleCycles                       33850852                       # Total number of cycles that the object has spent stopped
system.cpu0.ipc                              0.150689                       # IPC: instructions per cycle
system.cpu0.itb.rdAccesses                          0                       # TLB accesses on read requests
system.cpu0.itb.rdMisses                            0                       # TLB misses on read requests
system.cpu0.itb.wrAccesses                    3366917                       # TLB accesses on write requests
system.cpu0.itb.wrMisses                          217                       # TLB misses on write requests
system.cpu0.numCycles                        66361717                       # number of cpu cycles simulated
system.cpu0.numFetchSuspends                        0                       # Number of times Execute suspended instruction fetching
system.cpu0.numWorkItemsCompleted                   0                       # number of work items this cpu completed
system.cpu0.numWorkItemsStarted                     0                       # number of work items this cpu started
system.cpu0.op_class_0::No_OpClass              38775      0.20%      0.20% # Class of committed instruction
system.cpu0.op_class_0::IntAlu               14860976     78.56%     78.77% # Class of committed instruction
system.cpu0.op_class_0::IntMult                 41062      0.22%     78.98% # Class of committed instruction
system.cpu0.op_class_0::IntDiv                   1365      0.01%     78.99% # Class of committed instruction
system.cpu0.op_class_0::FloatAdd                24884      0.13%     79.12% # Class of committed instruction
system.cpu0.op_class_0::FloatCmp                    0      0.00%     79.12% # Class of committed instruction
system.cpu0.op_class_0::FloatCvt                  160      0.00%     79.12% # Class of committed instruction
system.cpu0.op_class_0::FloatMult                   0      0.00%     79.12% # Class of committed instruction
system.cpu0.op_class_0::FloatMultAcc                0      0.00%     79.12% # Class of committed instruction
system.cpu0.op_class_0::FloatDiv                    0      0.00%     79.12% # Class of committed instruction
system.cpu0.op_class_0::FloatMisc                   0      0.00%     79.12% # Class of committed instruction
system.cpu0.op_class_0::FloatSqrt                   0      0.00%     79.12% # Class of committed instruction
system.cpu0.op_class_0::SimdAdd                   946      0.01%     79.13% # Class of committed instruction
system.cpu0.op_class_0::SimdAddAcc                  0      0.00%     79.13% # Class of committed instruction
system.cpu0.op_class_0::SimdAlu                  1027      0.01%     79.13% # Class of committed instruction
system.cpu0.op_class_0::SimdCmp                    12      0.00%     79.13% # Class of committed instruction
system.cpu0.op_class_0::SimdCvt                 27378      0.14%     79.28% # Class of committed instruction
system.cpu0.op_class_0::SimdMisc               112708      0.60%     79.87% # Class of committed instruction
system.cpu0.op_class_0::SimdMult                    0      0.00%     79.87% # Class of committed instruction
system.cpu0.op_class_0::SimdMultAcc                 0      0.00%     79.87% # Class of committed instruction
system.cpu0.op_class_0::SimdShift                 446      0.00%     79.88% # Class of committed instruction
system.cpu0.op_class_0::SimdShiftAcc                0      0.00%     79.88% # Class of committed instruction
system.cpu0.op_class_0::SimdDiv                     0      0.00%     79.88% # Class of committed instruction
system.cpu0.op_class_0::SimdSqrt                    0      0.00%     79.88% # Class of committed instruction
system.cpu0.op_class_0::SimdFloatAdd                0      0.00%     79.88% # Class of committed instruction
system.cpu0.op_class_0::SimdFloatAlu                0      0.00%     79.88% # Class of committed instruction
system.cpu0.op_class_0::SimdFloatCmp                0      0.00%     79.88% # Class of committed instruction
system.cpu0.op_class_0::SimdFloatCvt                0      0.00%     79.88% # Class of committed instruction
system.cpu0.op_class_0::SimdFloatDiv                0      0.00%     79.88% # Class of committed instruction
system.cpu0.op_class_0::SimdFloatMisc               0      0.00%     79.88% # Class of committed instruction
system.cpu0.op_class_0::SimdFloatMult               0      0.00%     79.88% # Class of committed instruction
system.cpu0.op_class_0::SimdFloatMultAcc            0      0.00%     79.88% # Class of committed instruction
system.cpu0.op_class_0::SimdFloatSqrt               0      0.00%     79.88% # Class of committed instruction
system.cpu0.op_class_0::SimdReduceAdd               0      0.00%     79.88% # Class of committed instruction
system.cpu0.op_class_0::SimdReduceAlu               0      0.00%     79.88% # Class of committed instruction
system.cpu0.op_class_0::SimdReduceCmp               0      0.00%     79.88% # Class of committed instruction
system.cpu0.op_class_0::SimdFloatReduceAdd            0      0.00%     79.88% # Class of committed instruction
system.cpu0.op_class_0::SimdFloatReduceCmp            0      0.00%     79.88% # Class of committed instruction
system.cpu0.op_class_0::SimdAes                     0      0.00%     79.88% # Class of committed instruction
system.cpu0.op_class_0::SimdAesMix                  0      0.00%     79.88% # Class of committed instruction
system.cpu0.op_class_0::SimdSha1Hash                0      0.00%     79.88% # Class of committed instruction
system.cpu0.op_class_0::SimdSha1Hash2               0      0.00%     79.88% # Class of committed instruction
system.cpu0.op_class_0::SimdSha256Hash              0      0.00%     79.88% # Class of committed instruction
system.cpu0.op_class_0::SimdSha256Hash2             0      0.00%     79.88% # Class of committed instruction
system.cpu0.op_class_0::SimdShaSigma2               0      0.00%     79.88% # Class of committed instruction
system.cpu0.op_class_0::SimdShaSigma3               0      0.00%     79.88% # Class of committed instruction
system.cpu0.op_class_0::SimdPredAlu                 0      0.00%     79.88% # Class of committed instruction
system.cpu0.op_class_0::MemRead               2046688     10.82%     90.70% # Class of committed instruction
system.cpu0.op_class_0::MemWrite              1656607      8.76%     99.45% # Class of committed instruction
system.cpu0.op_class_0::FloatMemRead            64978      0.34%     99.80% # Class of committed instruction
system.cpu0.op_class_0::FloatMemWrite           38368      0.20%    100.00% # Class of committed instruction
system.cpu0.op_class_0::IprAccess                   0      0.00%    100.00% # Class of committed instruction
system.cpu0.op_class_0::InstPrefetch                0      0.00%    100.00% # Class of committed instruction
system.cpu0.op_class_0::total                18916380                       # Class of committed instruction
system.cpu0.tickCycles                       32510865                       # Number of cycles that the object actually ticked
system.cpu0.workload.numSyscalls                   39                       # Number of system calls
system.cpu1.branchPred.BTBCorrect                   0                       # Number of correct BTB predictions (this stat may not work properly.
system.cpu1.branchPred.BTBHitPct                  nan                       # BTB Hit Percentage
system.cpu1.branchPred.BTBHits                      0                       # Number of BTB hits
system.cpu1.branchPred.BTBLookups                   0                       # Number of BTB lookups
system.cpu1.branchPred.RASInCorrect                 0                       # Number of incorrect RAS predictions.
system.cpu1.branchPred.condIncorrect               37                       # Number of conditional branches incorrect
system.cpu1.branchPred.condPredicted               79                       # Number of conditional branches predicted
system.cpu1.branchPred.indirectHits                 1                       # Number of indirect target hits.
system.cpu1.branchPred.indirectLookups             24                       # Number of indirect predictor lookups.
system.cpu1.branchPred.indirectMisses              23                       # Number of indirect misses.
system.cpu1.branchPred.lookups                     79                       # Number of BP lookups
system.cpu1.branchPred.usedRAS                      0                       # Number of times the RAS was used to get a target.
system.cpu1.branchPredindirectMispredicted           12                       # Number of mispredicted indirect branches.
system.cpu1.committedInsts                    9823516                       # Number of instructions committed
system.cpu1.committedOps                     16074857                       # Number of ops (including micro ops) committed
system.cpu1.cpi                              6.755394                       # CPI: cycles per instruction
system.cpu1.discardedOps                      5059849                       # Number of ops (including micro ops) which were discarded before commit
system.cpu1.dtb.rdAccesses                    1446635                       # TLB accesses on read requests
system.cpu1.dtb.rdMisses                         2703                       # TLB misses on read requests
system.cpu1.dtb.wrAccesses                     659608                       # TLB accesses on write requests
system.cpu1.dtb.wrMisses                           88                       # TLB misses on write requests
system.cpu1.fetch2.amo_instructions                 0                       # Number of memory atomic instructions successfully decoded
system.cpu1.fetch2.fp_instructions                  0                       # Number of floating point instructions successfully decoded
system.cpu1.fetch2.int_instructions                 9                       # Number of integer instructions successfully decoded
system.cpu1.fetch2.load_instructions                0                       # Number of memory load instructions successfully decoded
system.cpu1.fetch2.store_instructions               0                       # Number of memory store instructions successfully decoded
system.cpu1.fetch2.vec_instructions                 0                       # Number of SIMD instructions successfully decoded
system.cpu1.idleCycles                       34227700                       # Total number of cycles that the object has spent stopped
system.cpu1.ipc                              0.148030                       # IPC: instructions per cycle
system.cpu1.itb.rdAccesses                          0                       # TLB accesses on read requests
system.cpu1.itb.rdMisses                            0                       # TLB misses on read requests
system.cpu1.itb.wrAccesses                    4682253                       # TLB accesses on write requests
system.cpu1.itb.wrMisses                          245                       # TLB misses on write requests
system.cpu1.numCycles                        66361717                       # number of cpu cycles simulated
system.cpu1.numFetchSuspends                        0                       # Number of times Execute suspended instruction fetching
system.cpu1.numWorkItemsCompleted                   0                       # number of work items this cpu completed
system.cpu1.numWorkItemsStarted                     0                       # number of work items this cpu started
system.cpu1.op_class_0::No_OpClass              12560      0.08%      0.08% # Class of committed instruction
system.cpu1.op_class_0::IntAlu               13831777     86.05%     86.12% # Class of committed instruction
system.cpu1.op_class_0::IntMult                  6224      0.04%     86.16% # Class of committed instruction
system.cpu1.op_class_0::IntDiv                   1592      0.01%     86.17% # Class of committed instruction
system.cpu1.op_class_0::FloatAdd               139604      0.87%     87.04% # Class of committed instruction
system.cpu1.op_class_0::FloatCmp                    0      0.00%     87.04% # Class of committed instruction
system.cpu1.op_class_0::FloatCvt                  144      0.00%     87.04% # Class of committed instruction
system.cpu1.op_class_0::FloatMult                   0      0.00%     87.04% # Class of committed instruction
system.cpu1.op_class_0::FloatMultAcc                0      0.00%     87.04% # Class of committed instruction
system.cpu1.op_class_0::FloatDiv                    0      0.00%     87.04% # Class of committed instruction
system.cpu1.op_class_0::FloatMisc                   0      0.00%     87.04% # Class of committed instruction
system.cpu1.op_class_0::FloatSqrt                   0      0.00%     87.04% # Class of committed instruction
system.cpu1.op_class_0::SimdAdd                  1170      0.01%     87.05% # Class of committed instruction
system.cpu1.op_class_0::SimdAddAcc                  0      0.00%     87.05% # Class of committed instruction
system.cpu1.op_class_0::SimdAlu                  1323      0.01%     87.06% # Class of committed instruction
system.cpu1.op_class_0::SimdCmp                     6      0.00%     87.06% # Class of committed instruction
system.cpu1.op_class_0::SimdCvt                  1838      0.01%     87.07% # Class of committed instruction
system.cpu1.op_class_0::SimdMisc                17658      0.11%     87.18% # Class of committed instruction
system.cpu1.op_class_0::SimdMult                    0      0.00%     87.18% # Class of committed instruction
system.cpu1.op_class_0::SimdMultAcc                 0      0.00%     87.18% # Class of committed instruction
system.cpu1.op_class_0::SimdShift                 408      0.00%     87.18% # Class of committed instruction
system.cpu1.op_class_0::SimdShiftAcc                0      0.00%     87.18% # Class of committed instruction
system.cpu1.op_class_0::SimdDiv                     0      0.00%     87.18% # Class of committed instruction
system.cpu1.op_class_0::SimdSqrt                    0      0.00%     87.18% # Class of committed instruction
system.cpu1.op_class_0::SimdFloatAdd            28658      0.18%     87.36% # Class of committed instruction
system.cpu1.op_class_0::SimdFloatAlu                0      0.00%     87.36% # Class of committed instruction
system.cpu1.op_class_0::SimdFloatCmp                0      0.00%     87.36% # Class of committed instruction
system.cpu1.op_class_0::SimdFloatCvt            34832      0.22%     87.58% # Class of committed instruction
system.cpu1.op_class_0::SimdFloatDiv               22      0.00%     87.58% # Class of committed instruction
system.cpu1.op_class_0::SimdFloatMisc               0      0.00%     87.58% # Class of committed instruction
system.cpu1.op_class_0::SimdFloatMult           49128      0.31%     87.88% # Class of committed instruction
system.cpu1.op_class_0::SimdFloatMultAcc            0      0.00%     87.88% # Class of committed instruction
system.cpu1.op_class_0::SimdFloatSqrt               0      0.00%     87.88% # Class of committed instruction
system.cpu1.op_class_0::SimdReduceAdd               0      0.00%     87.88% # Class of committed instruction
system.cpu1.op_class_0::SimdReduceAlu               0      0.00%     87.88% # Class of committed instruction
system.cpu1.op_class_0::SimdReduceCmp               0      0.00%     87.88% # Class of committed instruction
system.cpu1.op_class_0::SimdFloatReduceAdd            0      0.00%     87.88% # Class of committed instruction
system.cpu1.op_class_0::SimdFloatReduceCmp            0      0.00%     87.88% # Class of committed instruction
system.cpu1.op_class_0::SimdAes                     0      0.00%     87.88% # Class of committed instruction
system.cpu1.op_class_0::SimdAesMix                  0      0.00%     87.88% # Class of committed instruction
system.cpu1.op_class_0::SimdSha1Hash                0      0.00%     87.88% # Class of committed instruction
system.cpu1.op_class_0::SimdSha1Hash2               0      0.00%     87.88% # Class of committed instruction
system.cpu1.op_class_0::SimdSha256Hash              0      0.00%     87.88% # Class of committed instruction
system.cpu1.op_class_0::SimdSha256Hash2             0      0.00%     87.88% # Class of committed instruction
system.cpu1.op_class_0::SimdShaSigma2               0      0.00%     87.88% # Class of committed instruction
system.cpu1.op_class_0::SimdShaSigma3               0      0.00%     87.88% # Class of committed instruction
system.cpu1.op_class_0::SimdPredAlu                 0      0.00%     87.88% # Class of committed instruction
system.cpu1.op_class_0::MemRead               1241508      7.72%     95.61% # Class of committed instruction
system.cpu1.op_class_0::MemWrite               580202      3.61%     99.21% # Class of committed instruction
system.cpu1.op_class_0::FloatMemRead            80716      0.50%     99.72% # Class of committed instruction
system.cpu1.op_class_0::FloatMemWrite           45487      0.28%    100.00% # Class of committed instruction
system.cpu1.op_class_0::IprAccess                   0      0.00%    100.00% # Class of committed instruction
system.cpu1.op_class_0::InstPrefetch                0      0.00%    100.00% # Class of committed instruction
system.cpu1.op_class_0::total                16074857                       # Class of committed instruction
system.cpu1.tickCycles                       32134017                       # Number of cycles that the object actually ticked
system.cpu1.workload.numSyscalls                   37                       # Number of system calls
system.membus.snoop_filter.hit_multi_requests            0                       # Number of requests hitting in the snoop filter with multiple (>1) holders of the requested data.
system.membus.snoop_filter.hit_multi_snoops            0                       # Number of snoops hitting in the snoop filter with multiple (>1) holders of the requested data.
system.membus.snoop_filter.hit_single_requests       258830                       # Number of requests hitting in the snoop filter with a single holder of the requested data.
system.membus.snoop_filter.hit_single_snoops            0                       # Number of snoops hitting in the snoop filter with a single holder of the requested data.
system.membus.snoop_filter.tot_requests        518684                       # Total number of requests made to the snoop filter.
system.membus.snoop_filter.tot_snoops               0                       # Total number of snoops made to the snoop filter.
system.tol2bus.snoop_filter.hit_multi_requests            0                       # Number of requests hitting in the snoop filter with multiple (>1) holders of the requested data.
system.tol2bus.snoop_filter.hit_multi_snoops            0                       # Number of snoops hitting in the snoop filter with multiple (>1) holders of the requested data.
system.tol2bus.snoop_filter.hit_single_requests      2621496                       # Number of requests hitting in the snoop filter with a single holder of the requested data.
system.tol2bus.snoop_filter.hit_single_snoops         2451                       # Number of snoops hitting in the snoop filter with a single holder of the requested data.
system.tol2bus.snoop_filter.tot_requests      5243057                       # Total number of requests made to the snoop filter.
system.tol2bus.snoop_filter.tot_snoops           2451                       # Total number of snoops made to the snoop filter.
system.membus.trans_dist::ReadResp             217408                       # Transaction distribution
system.membus.trans_dist::WritebackDirty       125748                       # Transaction distribution
system.membus.trans_dist::CleanEvict           133082                       # Transaction distribution
system.membus.trans_dist::ReadExReq             42446                       # Transaction distribution
system.membus.trans_dist::ReadExResp            42446                       # Transaction distribution
system.membus.trans_dist::ReadSharedReq        217408                       # Transaction distribution
system.membus.pkt_count_system.l2.mem_side::system.mem_ctrls.port       778538                       # Packet count per connected master and slave (bytes)
system.membus.pkt_count_system.l2.mem_side::total       778538                       # Packet count per connected master and slave (bytes)
system.membus.pkt_count::total                 778538                       # Packet count per connected master and slave (bytes)
system.membus.pkt_size_system.l2.mem_side::system.mem_ctrls.port     24678528                       # Cumulative packet size per connected master and slave (bytes)
system.membus.pkt_size_system.l2.mem_side::total     24678528                       # Cumulative packet size per connected master and slave (bytes)
system.membus.pkt_size::total                24678528                       # Cumulative packet size per connected master and slave (bytes)
system.membus.snoops                                0                       # Total snoops (count)
system.membus.snoopTraffic                          0                       # Total snoop traffic (bytes)
system.membus.snoop_fanout::samples            259854                       # Request fanout histogram
system.membus.snoop_fanout::mean                    0                       # Request fanout histogram
system.membus.snoop_fanout::stdev                   0                       # Request fanout histogram
system.membus.snoop_fanout::underflows              0      0.00%      0.00% # Request fanout histogram
system.membus.snoop_fanout::0                  259854    100.00%    100.00% # Request fanout histogram
system.membus.snoop_fanout::1                       0      0.00%    100.00% # Request fanout histogram
system.membus.snoop_fanout::overflows               0      0.00%    100.00% # Request fanout histogram
system.membus.snoop_fanout::min_value               0                       # Request fanout histogram
system.membus.snoop_fanout::max_value               0                       # Request fanout histogram
system.membus.snoop_fanout::total              259854                       # Request fanout histogram
system.membus.reqLayer4.occupancy          1106860500                       # Layer occupancy (ticks)
system.membus.reqLayer4.utilization               3.3                       # Layer utilization (%)
system.membus.respLayer1.occupancy         1375019000                       # Layer occupancy (ticks)
system.membus.respLayer1.utilization              4.1                       # Layer utilization (%)
system.membus.power_state.pwrStateResidencyTicks::UNDEFINED  33180858500                       # Cumulative time (in ticks) in various power states
system.voltage_domain.voltage                       1                       # Voltage in Volts
system.clk_domain.clock                          1000                       # Clock period in ticks
system.cpu0.icache.demand_hits::.cpu0.inst      1730856                       # number of demand (read+write) hits
system.cpu0.icache.demand_hits::total         1730856                       # number of demand (read+write) hits
system.cpu0.icache.overall_hits::.cpu0.inst      1730856                       # number of overall hits
system.cpu0.icache.overall_hits::total        1730856                       # number of overall hits
system.cpu0.icache.demand_misses::.cpu0.inst      1636008                       # number of demand (read+write) misses
system.cpu0.icache.demand_misses::total       1636008                       # number of demand (read+write) misses
system.cpu0.icache.overall_misses::.cpu0.inst      1636008                       # number of overall misses
system.cpu0.icache.overall_misses::total      1636008                       # number of overall misses
system.cpu0.icache.demand_miss_latency::.cpu0.inst  21449253000                       # number of demand (read+write) miss cycles
system.cpu0.icache.demand_miss_latency::total  21449253000                       # number of demand (read+write) miss cycles
system.cpu0.icache.overall_miss_latency::.cpu0.inst  21449253000                       # number of overall miss cycles
system.cpu0.icache.overall_miss_latency::total  21449253000                       # number of overall miss cycles
system.cpu0.icache.demand_accesses::.cpu0.inst      3366864                       # number of demand (read+write) accesses
system.cpu0.icache.demand_accesses::total      3366864                       # number of demand (read+write) accesses
system.cpu0.icache.overall_accesses::.cpu0.inst      3366864                       # number of overall (read+write) accesses
system.cpu0.icache.overall_accesses::total      3366864                       # number of overall (read+write) accesses
system.cpu0.icache.demand_miss_rate::.cpu0.inst     0.485914                       # miss rate for demand accesses
system.cpu0.icache.demand_miss_rate::total     0.485914                       # miss rate for demand accesses
system.cpu0.icache.overall_miss_rate::.cpu0.inst     0.485914                       # miss rate for overall accesses
system.cpu0.icache.overall_miss_rate::total     0.485914                       # miss rate for overall accesses
system.cpu0.icache.demand_avg_miss_latency::.cpu0.inst 13110.726231                       # average overall miss latency
system.cpu0.icache.demand_avg_miss_latency::total 13110.726231                       # average overall miss latency
system.cpu0.icache.overall_avg_miss_latency::.cpu0.inst 13110.726231                       # average overall miss latency
system.cpu0.icache.overall_avg_miss_latency::total 13110.726231                       # average overall miss latency
system.cpu0.icache.blocked_cycles::no_mshrs            0                       # number of cycles access was blocked
system.cpu0.icache.blocked_cycles::no_targets            0                       # number of cycles access was blocked
system.cpu0.icache.blocked::no_mshrs                0                       # number of cycles access was blocked
system.cpu0.icache.blocked::no_targets              0                       # number of cycles access was blocked
system.cpu0.icache.avg_blocked_cycles::no_mshrs          nan                       # average number of cycles each access was blocked
system.cpu0.icache.avg_blocked_cycles::no_targets          nan                       # average number of cycles each access was blocked
system.cpu0.icache.writebacks::.writebacks      1635992                       # number of writebacks
system.cpu0.icache.writebacks::total          1635992                       # number of writebacks
system.cpu0.icache.demand_mshr_misses::.cpu0.inst      1636008                       # number of demand (read+write) MSHR misses
system.cpu0.icache.demand_mshr_misses::total      1636008                       # number of demand (read+write) MSHR misses
system.cpu0.icache.overall_mshr_misses::.cpu0.inst      1636008                       # number of overall MSHR misses
system.cpu0.icache.overall_mshr_misses::total      1636008                       # number of overall MSHR misses
system.cpu0.icache.demand_mshr_miss_latency::.cpu0.inst  19813245000                       # number of demand (read+write) MSHR miss cycles
system.cpu0.icache.demand_mshr_miss_latency::total  19813245000                       # number of demand (read+write) MSHR miss cycles
system.cpu0.icache.overall_mshr_miss_latency::.cpu0.inst  19813245000                       # number of overall MSHR miss cycles
system.cpu0.icache.overall_mshr_miss_latency::total  19813245000                       # number of overall MSHR miss cycles
system.cpu0.icache.demand_mshr_miss_rate::.cpu0.inst     0.485914                       # mshr miss rate for demand accesses
system.cpu0.icache.demand_mshr_miss_rate::total     0.485914                       # mshr miss rate for demand accesses
system.cpu0.icache.overall_mshr_miss_rate::.cpu0.inst     0.485914                       # mshr miss rate for overall accesses
system.cpu0.icache.overall_mshr_miss_rate::total     0.485914                       # mshr miss rate for overall accesses
system.cpu0.icache.demand_avg_mshr_miss_latency::.cpu0.inst 12110.726231                       # average overall mshr miss latency
system.cpu0.icache.demand_avg_mshr_miss_latency::total 12110.726231                       # average overall mshr miss latency
system.cpu0.icache.overall_avg_mshr_miss_latency::.cpu0.inst 12110.726231                       # average overall mshr miss latency
system.cpu0.icache.overall_avg_mshr_miss_latency::total 12110.726231                       # average overall mshr miss latency
system.cpu0.icache.replacements               1635992                       # number of replacements
system.cpu0.icache.ReadReq_hits::.cpu0.inst      1730856                       # number of ReadReq hits
system.cpu0.icache.ReadReq_hits::total        1730856                       # number of ReadReq hits
system.cpu0.icache.ReadReq_misses::.cpu0.inst      1636008                       # number of ReadReq misses
system.cpu0.icache.ReadReq_misses::total      1636008                       # number of ReadReq misses
system.cpu0.icache.ReadReq_miss_latency::.cpu0.inst  21449253000                       # number of ReadReq miss cycles
system.cpu0.icache.ReadReq_miss_latency::total  21449253000                       # number of ReadReq miss cycles
system.cpu0.icache.ReadReq_accesses::.cpu0.inst      3366864                       # number of ReadReq accesses(hits+misses)
system.cpu0.icache.ReadReq_accesses::total      3366864                       # number of ReadReq accesses(hits+misses)
system.cpu0.icache.ReadReq_miss_rate::.cpu0.inst     0.485914                       # miss rate for ReadReq accesses
system.cpu0.icache.ReadReq_miss_rate::total     0.485914                       # miss rate for ReadReq accesses
system.cpu0.icache.ReadReq_avg_miss_latency::.cpu0.inst 13110.726231                       # average ReadReq miss latency
system.cpu0.icache.ReadReq_avg_miss_latency::total 13110.726231                       # average ReadReq miss latency
system.cpu0.icache.ReadReq_mshr_misses::.cpu0.inst      1636008                       # number of ReadReq MSHR misses
system.cpu0.icache.ReadReq_mshr_misses::total      1636008                       # number of ReadReq MSHR misses
system.cpu0.icache.ReadReq_mshr_miss_latency::.cpu0.inst  19813245000                       # number of ReadReq MSHR miss cycles
system.cpu0.icache.ReadReq_mshr_miss_latency::total  19813245000                       # number of ReadReq MSHR miss cycles
system.cpu0.icache.ReadReq_mshr_miss_rate::.cpu0.inst     0.485914                       # mshr miss rate for ReadReq accesses
system.cpu0.icache.ReadReq_mshr_miss_rate::total     0.485914                       # mshr miss rate for ReadReq accesses
system.cpu0.icache.ReadReq_avg_mshr_miss_latency::.cpu0.inst 12110.726231                       # average ReadReq mshr miss latency
system.cpu0.icache.ReadReq_avg_mshr_miss_latency::total 12110.726231                       # average ReadReq mshr miss latency
system.cpu0.icache.power_state.pwrStateResidencyTicks::UNDEFINED  33180858500                       # Cumulative time (in ticks) in various power states
system.cpu0.icache.tags.tagsinuse           15.999561                       # Cycle average of tags in use
system.cpu0.icache.tags.total_refs            3366864                       # Total number of references to valid blocks.
system.cpu0.icache.tags.sampled_refs          1636008                       # Sample count of references to valid blocks.
system.cpu0.icache.tags.avg_refs             2.057975                       # Average number of references to valid blocks.
system.cpu0.icache.tags.warmup_cycle            87500                       # Cycle when the warmup percentage was hit.
system.cpu0.icache.tags.occ_blocks::.cpu0.inst    15.999561                       # Average occupied blocks per requestor
system.cpu0.icache.tags.occ_percent::.cpu0.inst     0.999973                       # Average percentage of cache occupancy
system.cpu0.icache.tags.occ_percent::total     0.999973                       # Average percentage of cache occupancy
system.cpu0.icache.tags.occ_task_id_blocks::1024           16                       # Occupied blocks per task id
system.cpu0.icache.tags.age_task_id_blocks_1024::0           16                       # Occupied blocks per task id
system.cpu0.icache.tags.occ_task_id_percent::1024            1                       # Percentage of cache occupancy per task id
system.cpu0.icache.tags.tag_accesses         28570920                       # Number of tag accesses
system.cpu0.icache.tags.data_accesses        28570920                       # Number of data accesses
system.cpu0.icache.tags.power_state.pwrStateResidencyTicks::UNDEFINED  33180858500                       # Cumulative time (in ticks) in various power states
system.cpu0.dtb.walker.power_state.pwrStateResidencyTicks::UNDEFINED  33180858500                       # Cumulative time (in ticks) in various power states
system.cpu0.interrupts.clk_domain.clock          8000                       # Clock period in ticks
system.cpu0.itb_walker_cache.blocked_cycles::no_mshrs            0                       # number of cycles access was blocked
system.cpu0.itb_walker_cache.blocked_cycles::no_targets            0                       # number of cycles access was blocked
system.cpu0.itb_walker_cache.blocked::no_mshrs            0                       # number of cycles access was blocked
system.cpu0.itb_walker_cache.blocked::no_targets            0                       # number of cycles access was blocked
system.cpu0.itb_walker_cache.avg_blocked_cycles::no_mshrs          nan                       # average number of cycles each access was blocked
system.cpu0.itb_walker_cache.avg_blocked_cycles::no_targets          nan                       # average number of cycles each access was blocked
system.cpu0.itb_walker_cache.replacements            0                       # number of replacements
system.cpu0.itb_walker_cache.power_state.pwrStateResidencyTicks::UNDEFINED  33180858500                       # Cumulative time (in ticks) in various power states
system.cpu0.itb_walker_cache.tags.tagsinuse            0                       # Cycle average of tags in use
system.cpu0.itb_walker_cache.tags.total_refs            0                       # Total number of references to valid blocks.
system.cpu0.itb_walker_cache.tags.sampled_refs            0                       # Sample count of references to valid blocks.
system.cpu0.itb_walker_cache.tags.avg_refs          nan                       # Average number of references to valid blocks.
system.cpu0.itb_walker_cache.tags.warmup_cycle            0                       # Cycle when the warmup percentage was hit.
system.cpu0.itb_walker_cache.tags.tag_accesses            0                       # Number of tag accesses
system.cpu0.itb_walker_cache.tags.data_accesses            0                       # Number of data accesses
system.cpu0.itb_walker_cache.tags.power_state.pwrStateResidencyTicks::UNDEFINED  33180858500                       # Cumulative time (in ticks) in various power states
system.cpu0.dtb_walker_cache.blocked_cycles::no_mshrs            0                       # number of cycles access was blocked
system.cpu0.dtb_walker_cache.blocked_cycles::no_targets            0                       # number of cycles access was blocked
system.cpu0.dtb_walker_cache.blocked::no_mshrs            0                       # number of cycles access was blocked
system.cpu0.dtb_walker_cache.blocked::no_targets            0                       # number of cycles access was blocked
system.cpu0.dtb_walker_cache.avg_blocked_cycles::no_mshrs          nan                       # average number of cycles each access was blocked
system.cpu0.dtb_walker_cache.avg_blocked_cycles::no_targets          nan                       # average number of cycles each access was blocked
system.cpu0.dtb_walker_cache.replacements            0                       # number of replacements
system.cpu0.dtb_walker_cache.power_state.pwrStateResidencyTicks::UNDEFINED  33180858500                       # Cumulative time (in ticks) in various power states
system.cpu0.dtb_walker_cache.tags.tagsinuse            0                       # Cycle average of tags in use
system.cpu0.dtb_walker_cache.tags.total_refs            0                       # Total number of references to valid blocks.
system.cpu0.dtb_walker_cache.tags.sampled_refs            0                       # Sample count of references to valid blocks.
system.cpu0.dtb_walker_cache.tags.avg_refs          nan                       # Average number of references to valid blocks.
system.cpu0.dtb_walker_cache.tags.warmup_cycle            0                       # Cycle when the warmup percentage was hit.
system.cpu0.dtb_walker_cache.tags.tag_accesses            0                       # Number of tag accesses
system.cpu0.dtb_walker_cache.tags.data_accesses            0                       # Number of data accesses
system.cpu0.dtb_walker_cache.tags.power_state.pwrStateResidencyTicks::UNDEFINED  33180858500                       # Cumulative time (in ticks) in various power states
system.cpu0.dcache.demand_hits::.cpu0.data      3402035                       # number of demand (read+write) hits
system.cpu0.dcache.demand_hits::total         3402035                       # number of demand (read+write) hits
system.cpu0.dcache.overall_hits::.cpu0.data      3402035                       # number of overall hits
system.cpu0.dcache.overall_hits::total        3402035                       # number of overall hits
system.cpu0.dcache.demand_misses::.cpu0.data       722654                       # number of demand (read+write) misses
system.cpu0.dcache.demand_misses::total        722654                       # number of demand (read+write) misses
system.cpu0.dcache.overall_misses::.cpu0.data       722654                       # number of overall misses
system.cpu0.dcache.overall_misses::total       722654                       # number of overall misses
system.cpu0.dcache.demand_miss_latency::.cpu0.data  13994347000                       # number of demand (read+write) miss cycles
system.cpu0.dcache.demand_miss_latency::total  13994347000                       # number of demand (read+write) miss cycles
system.cpu0.dcache.overall_miss_latency::.cpu0.data  13994347000                       # number of overall miss cycles
system.cpu0.dcache.overall_miss_latency::total  13994347000                       # number of overall miss cycles
system.cpu0.dcache.demand_accesses::.cpu0.data      4124689                       # number of demand (read+write) accesses
system.cpu0.dcache.demand_accesses::total      4124689                       # number of demand (read+write) accesses
system.cpu0.dcache.overall_accesses::.cpu0.data      4124689                       # number of overall (read+write) accesses
system.cpu0.dcache.overall_accesses::total      4124689                       # number of overall (read+write) accesses
system.cpu0.dcache.demand_miss_rate::.cpu0.data     0.175202                       # miss rate for demand accesses
system.cpu0.dcache.demand_miss_rate::total     0.175202                       # miss rate for demand accesses
system.cpu0.dcache.overall_miss_rate::.cpu0.data     0.175202                       # miss rate for overall accesses
system.cpu0.dcache.overall_miss_rate::total     0.175202                       # miss rate for overall accesses
system.cpu0.dcache.demand_avg_miss_latency::.cpu0.data 19365.210737                       # average overall miss latency
system.cpu0.dcache.demand_avg_miss_latency::total 19365.210737                       # average overall miss latency
system.cpu0.dcache.overall_avg_miss_latency::.cpu0.data 19365.210737                       # average overall miss latency
system.cpu0.dcache.overall_avg_miss_latency::total 19365.210737                       # average overall miss latency
system.cpu0.dcache.blocked_cycles::no_mshrs            0                       # number of cycles access was blocked
system.cpu0.dcache.blocked_cycles::no_targets            0                       # number of cycles access was blocked
system.cpu0.dcache.blocked::no_mshrs                0                       # number of cycles access was blocked
system.cpu0.dcache.blocked::no_targets              0                       # number of cycles access was blocked
system.cpu0.dcache.avg_blocked_cycles::no_mshrs          nan                       # average number of cycles each access was blocked
system.cpu0.dcache.avg_blocked_cycles::no_targets          nan                       # average number of cycles each access was blocked
system.cpu0.dcache.writebacks::.writebacks       433840                       # number of writebacks
system.cpu0.dcache.writebacks::total           433840                       # number of writebacks
system.cpu0.dcache.demand_mshr_hits::.cpu0.data        85351                       # number of demand (read+write) MSHR hits
system.cpu0.dcache.demand_mshr_hits::total        85351                       # number of demand (read+write) MSHR hits
system.cpu0.dcache.overall_mshr_hits::.cpu0.data        85351                       # number of overall MSHR hits
system.cpu0.dcache.overall_mshr_hits::total        85351                       # number of overall MSHR hits
system.cpu0.dcache.demand_mshr_misses::.cpu0.data       637303                       # number of demand (read+write) MSHR misses
system.cpu0.dcache.demand_mshr_misses::total       637303                       # number of demand (read+write) MSHR misses
system.cpu0.dcache.overall_mshr_misses::.cpu0.data       637303                       # number of overall MSHR misses
system.cpu0.dcache.overall_mshr_misses::total       637303                       # number of overall MSHR misses
system.cpu0.dcache.demand_mshr_miss_latency::.cpu0.data  11014417500                       # number of demand (read+write) MSHR miss cycles
system.cpu0.dcache.demand_mshr_miss_latency::total  11014417500                       # number of demand (read+write) MSHR miss cycles
system.cpu0.dcache.overall_mshr_miss_latency::.cpu0.data  11014417500                       # number of overall MSHR miss cycles
system.cpu0.dcache.overall_mshr_miss_latency::total  11014417500                       # number of overall MSHR miss cycles
system.cpu0.dcache.demand_mshr_miss_rate::.cpu0.data     0.154509                       # mshr miss rate for demand accesses
system.cpu0.dcache.demand_mshr_miss_rate::total     0.154509                       # mshr miss rate for demand accesses
system.cpu0.dcache.overall_mshr_miss_rate::.cpu0.data     0.154509                       # mshr miss rate for overall accesses
system.cpu0.dcache.overall_mshr_miss_rate::total     0.154509                       # mshr miss rate for overall accesses
system.cpu0.dcache.demand_avg_mshr_miss_latency::.cpu0.data 17282.858389                       # average overall mshr miss latency
system.cpu0.dcache.demand_avg_mshr_miss_latency::total 17282.858389                       # average overall mshr miss latency
system.cpu0.dcache.overall_avg_mshr_miss_latency::.cpu0.data 17282.858389                       # average overall mshr miss latency
system.cpu0.dcache.overall_avg_mshr_miss_latency::total 17282.858389                       # average overall mshr miss latency
system.cpu0.dcache.replacements                637287                       # number of replacements
system.cpu0.dcache.ReadReq_hits::.cpu0.data      1963560                       # number of ReadReq hits
system.cpu0.dcache.ReadReq_hits::total        1963560                       # number of ReadReq hits
system.cpu0.dcache.ReadReq_misses::.cpu0.data       466744                       # number of ReadReq misses
system.cpu0.dcache.ReadReq_misses::total       466744                       # number of ReadReq misses
system.cpu0.dcache.ReadReq_miss_latency::.cpu0.data   6954555500                       # number of ReadReq miss cycles
system.cpu0.dcache.ReadReq_miss_latency::total   6954555500                       # number of ReadReq miss cycles
system.cpu0.dcache.ReadReq_accesses::.cpu0.data      2430304                       # number of ReadReq accesses(hits+misses)
system.cpu0.dcache.ReadReq_accesses::total      2430304                       # number of ReadReq accesses(hits+misses)
system.cpu0.dcache.ReadReq_miss_rate::.cpu0.data     0.192052                       # miss rate for ReadReq accesses
system.cpu0.dcache.ReadReq_miss_rate::total     0.192052                       # miss rate for ReadReq accesses
system.cpu0.dcache.ReadReq_avg_miss_latency::.cpu0.data 14900.149761                       # average ReadReq miss latency
system.cpu0.dcache.ReadReq_avg_miss_latency::total 14900.149761                       # average ReadReq miss latency
system.cpu0.dcache.ReadReq_mshr_hits::.cpu0.data        18095                       # number of ReadReq MSHR hits
system.cpu0.dcache.ReadReq_mshr_hits::total        18095                       # number of ReadReq MSHR hits
system.cpu0.dcache.ReadReq_mshr_misses::.cpu0.data       448649                       # number of ReadReq MSHR misses
system.cpu0.dcache.ReadReq_mshr_misses::total       448649                       # number of ReadReq MSHR misses
system.cpu0.dcache.ReadReq_mshr_miss_latency::.cpu0.data   6246132000                       # number of ReadReq MSHR miss cycles
system.cpu0.dcache.ReadReq_mshr_miss_latency::total   6246132000                       # number of ReadReq MSHR miss cycles
system.cpu0.dcache.ReadReq_mshr_miss_rate::.cpu0.data     0.184606                       # mshr miss rate for ReadReq accesses
system.cpu0.dcache.ReadReq_mshr_miss_rate::total     0.184606                       # mshr miss rate for ReadReq accesses
system.cpu0.dcache.ReadReq_avg_mshr_miss_latency::.cpu0.data 13922.090543                       # average ReadReq mshr miss latency
system.cpu0.dcache.ReadReq_avg_mshr_miss_latency::total 13922.090543                       # average ReadReq mshr miss latency
system.cpu0.dcache.WriteReq_hits::.cpu0.data      1438475                       # number of WriteReq hits
system.cpu0.dcache.WriteReq_hits::total       1438475                       # number of WriteReq hits
system.cpu0.dcache.WriteReq_misses::.cpu0.data       255910                       # number of WriteReq misses
system.cpu0.dcache.WriteReq_misses::total       255910                       # number of WriteReq misses
system.cpu0.dcache.WriteReq_miss_latency::.cpu0.data   7039791500                       # number of WriteReq miss cycles
system.cpu0.dcache.WriteReq_miss_latency::total   7039791500                       # number of WriteReq miss cycles
system.cpu0.dcache.WriteReq_accesses::.cpu0.data      1694385                       # number of WriteReq accesses(hits+misses)
system.cpu0.dcache.WriteReq_accesses::total      1694385                       # number of WriteReq accesses(hits+misses)
system.cpu0.dcache.WriteReq_miss_rate::.cpu0.data     0.151034                       # miss rate for WriteReq accesses
system.cpu0.dcache.WriteReq_miss_rate::total     0.151034                       # miss rate for WriteReq accesses
system.cpu0.dcache.WriteReq_avg_miss_latency::.cpu0.data 27508.856629                       # average WriteReq miss latency
system.cpu0.dcache.WriteReq_avg_miss_latency::total 27508.856629                       # average WriteReq miss latency
system.cpu0.dcache.WriteReq_mshr_hits::.cpu0.data        67256                       # number of WriteReq MSHR hits
system.cpu0.dcache.WriteReq_mshr_hits::total        67256                       # number of WriteReq MSHR hits
system.cpu0.dcache.WriteReq_mshr_misses::.cpu0.data       188654                       # number of WriteReq MSHR misses
system.cpu0.dcache.WriteReq_mshr_misses::total       188654                       # number of WriteReq MSHR misses
system.cpu0.dcache.WriteReq_mshr_miss_latency::.cpu0.data   4768285500                       # number of WriteReq MSHR miss cycles
system.cpu0.dcache.WriteReq_mshr_miss_latency::total   4768285500                       # number of WriteReq MSHR miss cycles
system.cpu0.dcache.WriteReq_mshr_miss_rate::.cpu0.data     0.111341                       # mshr miss rate for WriteReq accesses
system.cpu0.dcache.WriteReq_mshr_miss_rate::total     0.111341                       # mshr miss rate for WriteReq accesses
system.cpu0.dcache.WriteReq_avg_mshr_miss_latency::.cpu0.data 25275.294984                       # average WriteReq mshr miss latency
system.cpu0.dcache.WriteReq_avg_mshr_miss_latency::total 25275.294984                       # average WriteReq mshr miss latency
system.cpu0.dcache.power_state.pwrStateResidencyTicks::UNDEFINED  33180858500                       # Cumulative time (in ticks) in various power states
system.cpu0.dcache.tags.tagsinuse           15.999588                       # Cycle average of tags in use
system.cpu0.dcache.tags.total_refs            4039338                       # Total number of references to valid blocks.
system.cpu0.dcache.tags.sampled_refs           637303                       # Sample count of references to valid blocks.
system.cpu0.dcache.tags.avg_refs             6.338175                       # Average number of references to valid blocks.
system.cpu0.dcache.tags.warmup_cycle           178500                       # Cycle when the warmup percentage was hit.
system.cpu0.dcache.tags.occ_blocks::.cpu0.data    15.999588                       # Average occupied blocks per requestor
system.cpu0.dcache.tags.occ_percent::.cpu0.data     0.999974                       # Average percentage of cache occupancy
system.cpu0.dcache.tags.occ_percent::total     0.999974                       # Average percentage of cache occupancy
system.cpu0.dcache.tags.occ_task_id_blocks::1024           16                       # Occupied blocks per task id
system.cpu0.dcache.tags.age_task_id_blocks_1024::0           16                       # Occupied blocks per task id
system.cpu0.dcache.tags.occ_task_id_percent::1024            1                       # Percentage of cache occupancy per task id
system.cpu0.dcache.tags.tag_accesses         33634815                       # Number of tag accesses
system.cpu0.dcache.tags.data_accesses        33634815                       # Number of data accesses
system.cpu0.dcache.tags.power_state.pwrStateResidencyTicks::UNDEFINED  33180858500                       # Cumulative time (in ticks) in various power states
system.cpu0.power_state.pwrStateResidencyTicks::ON  33180858500                       # Cumulative time (in ticks) in various power states
system.cpu0.itb.walker.power_state.pwrStateResidencyTicks::UNDEFINED  33180858500                       # Cumulative time (in ticks) in various power states
system.cpu1.icache.demand_hits::.cpu1.inst      4608638                       # number of demand (read+write) hits
system.cpu1.icache.demand_hits::total         4608638                       # number of demand (read+write) hits
system.cpu1.icache.overall_hits::.cpu1.inst      4608638                       # number of overall hits
system.cpu1.icache.overall_hits::total        4608638                       # number of overall hits
system.cpu1.icache.demand_misses::.cpu1.inst        73551                       # number of demand (read+write) misses
system.cpu1.icache.demand_misses::total         73551                       # number of demand (read+write) misses
system.cpu1.icache.overall_misses::.cpu1.inst        73551                       # number of overall misses
system.cpu1.icache.overall_misses::total        73551                       # number of overall misses
system.cpu1.icache.demand_miss_latency::.cpu1.inst   1583011500                       # number of demand (read+write) miss cycles
system.cpu1.icache.demand_miss_latency::total   1583011500                       # number of demand (read+write) miss cycles
system.cpu1.icache.overall_miss_latency::.cpu1.inst   1583011500                       # number of overall miss cycles
system.cpu1.icache.overall_miss_latency::total   1583011500                       # number of overall miss cycles
system.cpu1.icache.demand_accesses::.cpu1.inst      4682189                       # number of demand (read+write) accesses
system.cpu1.icache.demand_accesses::total      4682189                       # number of demand (read+write) accesses
system.cpu1.icache.overall_accesses::.cpu1.inst      4682189                       # number of overall (read+write) accesses
system.cpu1.icache.overall_accesses::total      4682189                       # number of overall (read+write) accesses
system.cpu1.icache.demand_miss_rate::.cpu1.inst     0.015709                       # miss rate for demand accesses
system.cpu1.icache.demand_miss_rate::total     0.015709                       # miss rate for demand accesses
system.cpu1.icache.overall_miss_rate::.cpu1.inst     0.015709                       # miss rate for overall accesses
system.cpu1.icache.overall_miss_rate::total     0.015709                       # miss rate for overall accesses
system.cpu1.icache.demand_avg_miss_latency::.cpu1.inst 21522.637354                       # average overall miss latency
system.cpu1.icache.demand_avg_miss_latency::total 21522.637354                       # average overall miss latency
system.cpu1.icache.overall_avg_miss_latency::.cpu1.inst 21522.637354                       # average overall miss latency
system.cpu1.icache.overall_avg_miss_latency::total 21522.637354                       # average overall miss latency
system.cpu1.icache.blocked_cycles::no_mshrs            0                       # number of cycles access was blocked
system.cpu1.icache.blocked_cycles::no_targets            0                       # number of cycles access was blocked
system.cpu1.icache.blocked::no_mshrs                0                       # number of cycles access was blocked
system.cpu1.icache.blocked::no_targets              0                       # number of cycles access was blocked
system.cpu1.icache.avg_blocked_cycles::no_mshrs          nan                       # average number of cycles each access was blocked
system.cpu1.icache.avg_blocked_cycles::no_targets          nan                       # average number of cycles each access was blocked
system.cpu1.icache.writebacks::.writebacks        73535                       # number of writebacks
system.cpu1.icache.writebacks::total            73535                       # number of writebacks
system.cpu1.icache.demand_mshr_misses::.cpu1.inst        73551                       # number of demand (read+write) MSHR misses
system.cpu1.icache.demand_mshr_misses::total        73551                       # number of demand (read+write) MSHR misses
system.cpu1.icache.overall_mshr_misses::.cpu1.inst        73551                       # number of overall MSHR misses
system.cpu1.icache.overall_mshr_misses::total        73551                       # number of overall MSHR misses
system.cpu1.icache.demand_mshr_miss_latency::.cpu1.inst   1509460500                       # number of demand (read+write) MSHR miss cycles
system.cpu1.icache.demand_mshr_miss_latency::total   1509460500                       # number of demand (read+write) MSHR miss cycles
system.cpu1.icache.overall_mshr_miss_latency::.cpu1.inst   1509460500                       # number of overall MSHR miss cycles
system.cpu1.icache.overall_mshr_miss_latency::total   1509460500                       # number of overall MSHR miss cycles
system.cpu1.icache.demand_mshr_miss_rate::.cpu1.inst     0.015709                       # mshr miss rate for demand accesses
system.cpu1.icache.demand_mshr_miss_rate::total     0.015709                       # mshr miss rate for demand accesses
system.cpu1.icache.overall_mshr_miss_rate::.cpu1.inst     0.015709                       # mshr miss rate for overall accesses
system.cpu1.icache.overall_mshr_miss_rate::total     0.015709                       # mshr miss rate for overall accesses
system.cpu1.icache.demand_avg_mshr_miss_latency::.cpu1.inst 20522.637354                       # average overall mshr miss latency
system.cpu1.icache.demand_avg_mshr_miss_latency::total 20522.637354                       # average overall mshr miss latency
system.cpu1.icache.overall_avg_mshr_miss_latency::.cpu1.inst 20522.637354                       # average overall mshr miss latency
system.cpu1.icache.overall_avg_mshr_miss_latency::total 20522.637354                       # average overall mshr miss latency
system.cpu1.icache.replacements                 73535                       # number of replacements
system.cpu1.icache.ReadReq_hits::.cpu1.inst      4608638                       # number of ReadReq hits
system.cpu1.icache.ReadReq_hits::total        4608638                       # number of ReadReq hits
system.cpu1.icache.ReadReq_misses::.cpu1.inst        73551                       # number of ReadReq misses
system.cpu1.icache.ReadReq_misses::total        73551                       # number of ReadReq misses
system.cpu1.icache.ReadReq_miss_latency::.cpu1.inst   1583011500                       # number of ReadReq miss cycles
system.cpu1.icache.ReadReq_miss_latency::total   1583011500                       # number of ReadReq miss cycles
system.cpu1.icache.ReadReq_accesses::.cpu1.inst      4682189                       # number of ReadReq accesses(hits+misses)
system.cpu1.icache.ReadReq_accesses::total      4682189                       # number of ReadReq accesses(hits+misses)
system.cpu1.icache.ReadReq_miss_rate::.cpu1.inst     0.015709                       # miss rate for ReadReq accesses
system.cpu1.icache.ReadReq_miss_rate::total     0.015709                       # miss rate for ReadReq accesses
system.cpu1.icache.ReadReq_avg_miss_latency::.cpu1.inst 21522.637354                       # average ReadReq miss latency
system.cpu1.icache.ReadReq_avg_miss_latency::total 21522.637354                       # average ReadReq miss latency
system.cpu1.icache.ReadReq_mshr_misses::.cpu1.inst        73551                       # number of ReadReq MSHR misses
system.cpu1.icache.ReadReq_mshr_misses::total        73551                       # number of ReadReq MSHR misses
system.cpu1.icache.ReadReq_mshr_miss_latency::.cpu1.inst   1509460500                       # number of ReadReq MSHR miss cycles
system.cpu1.icache.ReadReq_mshr_miss_latency::total   1509460500                       # number of ReadReq MSHR miss cycles
system.cpu1.icache.ReadReq_mshr_miss_rate::.cpu1.inst     0.015709                       # mshr miss rate for ReadReq accesses
system.cpu1.icache.ReadReq_mshr_miss_rate::total     0.015709                       # mshr miss rate for ReadReq accesses
system.cpu1.icache.ReadReq_avg_mshr_miss_latency::.cpu1.inst 20522.637354                       # average ReadReq mshr miss latency
system.cpu1.icache.ReadReq_avg_mshr_miss_latency::total 20522.637354                       # average ReadReq mshr miss latency
system.cpu1.icache.power_state.pwrStateResidencyTicks::UNDEFINED  33180858500                       # Cumulative time (in ticks) in various power states
system.cpu1.icache.tags.tagsinuse           15.999552                       # Cycle average of tags in use
system.cpu1.icache.tags.total_refs            4682189                       # Total number of references to valid blocks.
system.cpu1.icache.tags.sampled_refs            73551                       # Sample count of references to valid blocks.
system.cpu1.icache.tags.avg_refs            63.659080                       # Average number of references to valid blocks.
system.cpu1.icache.tags.warmup_cycle            92500                       # Cycle when the warmup percentage was hit.
system.cpu1.icache.tags.occ_blocks::.cpu1.inst    15.999552                       # Average occupied blocks per requestor
system.cpu1.icache.tags.occ_percent::.cpu1.inst     0.999972                       # Average percentage of cache occupancy
system.cpu1.icache.tags.occ_percent::total     0.999972                       # Average percentage of cache occupancy
system.cpu1.icache.tags.occ_task_id_blocks::1024           16                       # Occupied blocks per task id
system.cpu1.icache.tags.age_task_id_blocks_1024::1           16                       # Occupied blocks per task id
system.cpu1.icache.tags.occ_task_id_percent::1024            1                       # Percentage of cache occupancy per task id
system.cpu1.icache.tags.tag_accesses         37531063                       # Number of tag accesses
system.cpu1.icache.tags.data_accesses        37531063                       # Number of data accesses
system.cpu1.icache.tags.power_state.pwrStateResidencyTicks::UNDEFINED  33180858500                       # Cumulative time (in ticks) in various power states
system.cpu1.dtb.walker.power_state.pwrStateResidencyTicks::UNDEFINED  33180858500                       # Cumulative time (in ticks) in various power states
system.cpu1.interrupts.clk_domain.clock          8000                       # Clock period in ticks
system.cpu1.itb_walker_cache.blocked_cycles::no_mshrs            0                       # number of cycles access was blocked
system.cpu1.itb_walker_cache.blocked_cycles::no_targets            0                       # number of cycles access was blocked
system.cpu1.itb_walker_cache.blocked::no_mshrs            0                       # number of cycles access was blocked
system.cpu1.itb_walker_cache.blocked::no_targets            0                       # number of cycles access was blocked
system.cpu1.itb_walker_cache.avg_blocked_cycles::no_mshrs          nan                       # average number of cycles each access was blocked
system.cpu1.itb_walker_cache.avg_blocked_cycles::no_targets          nan                       # average number of cycles each access was blocked
system.cpu1.itb_walker_cache.replacements            0                       # number of replacements
system.cpu1.itb_walker_cache.power_state.pwrStateResidencyTicks::UNDEFINED  33180858500                       # Cumulative time (in ticks) in various power states
system.cpu1.itb_walker_cache.tags.tagsinuse            0                       # Cycle average of tags in use
system.cpu1.itb_walker_cache.tags.total_refs            0                       # Total number of references to valid blocks.
system.cpu1.itb_walker_cache.tags.sampled_refs            0                       # Sample count of references to valid blocks.
system.cpu1.itb_walker_cache.tags.avg_refs          nan                       # Average number of references to valid blocks.
system.cpu1.itb_walker_cache.tags.warmup_cycle            0                       # Cycle when the warmup percentage was hit.
system.cpu1.itb_walker_cache.tags.tag_accesses            0                       # Number of tag accesses
system.cpu1.itb_walker_cache.tags.data_accesses            0                       # Number of data accesses
system.cpu1.itb_walker_cache.tags.power_state.pwrStateResidencyTicks::UNDEFINED  33180858500                       # Cumulative time (in ticks) in various power states
system.cpu1.dtb_walker_cache.blocked_cycles::no_mshrs            0                       # number of cycles access was blocked
system.cpu1.dtb_walker_cache.blocked_cycles::no_targets            0                       # number of cycles access was blocked
system.cpu1.dtb_walker_cache.blocked::no_mshrs            0                       # number of cycles access was blocked
system.cpu1.dtb_walker_cache.blocked::no_targets            0                       # number of cycles access was blocked
system.cpu1.dtb_walker_cache.avg_blocked_cycles::no_mshrs          nan                       # average number of cycles each access was blocked
system.cpu1.dtb_walker_cache.avg_blocked_cycles::no_targets          nan                       # average number of cycles each access was blocked
system.cpu1.dtb_walker_cache.replacements            0                       # number of replacements
system.cpu1.dtb_walker_cache.power_state.pwrStateResidencyTicks::UNDEFINED  33180858500                       # Cumulative time (in ticks) in various power states
system.cpu1.dtb_walker_cache.tags.tagsinuse            0                       # Cycle average of tags in use
system.cpu1.dtb_walker_cache.tags.total_refs            0                       # Total number of references to valid blocks.
system.cpu1.dtb_walker_cache.tags.sampled_refs            0                       # Sample count of references to valid blocks.
system.cpu1.dtb_walker_cache.tags.avg_refs          nan                       # Average number of references to valid blocks.
system.cpu1.dtb_walker_cache.tags.warmup_cycle            0                       # Cycle when the warmup percentage was hit.
system.cpu1.dtb_walker_cache.tags.tag_accesses            0                       # Number of tag accesses
system.cpu1.dtb_walker_cache.tags.data_accesses            0                       # Number of data accesses
system.cpu1.dtb_walker_cache.tags.power_state.pwrStateResidencyTicks::UNDEFINED  33180858500                       # Cumulative time (in ticks) in various power states
system.cpu1.dcache.demand_hits::.cpu1.data      1780946                       # number of demand (read+write) hits
system.cpu1.dcache.demand_hits::total         1780946                       # number of demand (read+write) hits
system.cpu1.dcache.overall_hits::.cpu1.data      1781003                       # number of overall hits
system.cpu1.dcache.overall_hits::total        1781003                       # number of overall hits
system.cpu1.dcache.demand_misses::.cpu1.data       284821                       # number of demand (read+write) misses
system.cpu1.dcache.demand_misses::total        284821                       # number of demand (read+write) misses
system.cpu1.dcache.overall_misses::.cpu1.data       284878                       # number of overall misses
system.cpu1.dcache.overall_misses::total       284878                       # number of overall misses
system.cpu1.dcache.demand_miss_latency::.cpu1.data  18147764500                       # number of demand (read+write) miss cycles
system.cpu1.dcache.demand_miss_latency::total  18147764500                       # number of demand (read+write) miss cycles
system.cpu1.dcache.overall_miss_latency::.cpu1.data  18147764500                       # number of overall miss cycles
system.cpu1.dcache.overall_miss_latency::total  18147764500                       # number of overall miss cycles
system.cpu1.dcache.demand_accesses::.cpu1.data      2065767                       # number of demand (read+write) accesses
system.cpu1.dcache.demand_accesses::total      2065767                       # number of demand (read+write) accesses
system.cpu1.dcache.overall_accesses::.cpu1.data      2065881                       # number of overall (read+write) accesses
system.cpu1.dcache.overall_accesses::total      2065881                       # number of overall (read+write) accesses
system.cpu1.dcache.demand_miss_rate::.cpu1.data     0.137877                       # miss rate for demand accesses
system.cpu1.dcache.demand_miss_rate::total     0.137877                       # miss rate for demand accesses
system.cpu1.dcache.overall_miss_rate::.cpu1.data     0.137897                       # miss rate for overall accesses
system.cpu1.dcache.overall_miss_rate::total     0.137897                       # miss rate for overall accesses
system.cpu1.dcache.demand_avg_miss_latency::.cpu1.data 63716.385028                       # average overall miss latency
system.cpu1.dcache.demand_avg_miss_latency::total 63716.385028                       # average overall miss latency
system.cpu1.dcache.overall_avg_miss_latency::.cpu1.data 63703.636293                       # average overall miss latency
system.cpu1.dcache.overall_avg_miss_latency::total 63703.636293                       # average overall miss latency
system.cpu1.dcache.blocked_cycles::no_mshrs            0                       # number of cycles access was blocked
system.cpu1.dcache.blocked_cycles::no_targets            0                       # number of cycles access was blocked
system.cpu1.dcache.blocked::no_mshrs                0                       # number of cycles access was blocked
system.cpu1.dcache.blocked::no_targets              0                       # number of cycles access was blocked
system.cpu1.dcache.avg_blocked_cycles::no_mshrs          nan                       # average number of cycles each access was blocked
system.cpu1.dcache.avg_blocked_cycles::no_targets          nan                       # average number of cycles each access was blocked
system.cpu1.dcache.writebacks::.writebacks       150963                       # number of writebacks
system.cpu1.dcache.writebacks::total           150963                       # number of writebacks
system.cpu1.dcache.demand_mshr_hits::.cpu1.data        10179                       # number of demand (read+write) MSHR hits
system.cpu1.dcache.demand_mshr_hits::total        10179                       # number of demand (read+write) MSHR hits
system.cpu1.dcache.overall_mshr_hits::.cpu1.data        10179                       # number of overall MSHR hits
system.cpu1.dcache.overall_mshr_hits::total        10179                       # number of overall MSHR hits
system.cpu1.dcache.demand_mshr_misses::.cpu1.data       274642                       # number of demand (read+write) MSHR misses
system.cpu1.dcache.demand_mshr_misses::total       274642                       # number of demand (read+write) MSHR misses
system.cpu1.dcache.overall_mshr_misses::.cpu1.data       274699                       # number of overall MSHR misses
system.cpu1.dcache.overall_mshr_misses::total       274699                       # number of overall MSHR misses
system.cpu1.dcache.demand_mshr_miss_latency::.cpu1.data  17239457500                       # number of demand (read+write) MSHR miss cycles
system.cpu1.dcache.demand_mshr_miss_latency::total  17239457500                       # number of demand (read+write) MSHR miss cycles
system.cpu1.dcache.overall_mshr_miss_latency::.cpu1.data  17242064500                       # number of overall MSHR miss cycles
system.cpu1.dcache.overall_mshr_miss_latency::total  17242064500                       # number of overall MSHR miss cycles
system.cpu1.dcache.demand_mshr_miss_rate::.cpu1.data     0.132949                       # mshr miss rate for demand accesses
system.cpu1.dcache.demand_mshr_miss_rate::total     0.132949                       # mshr miss rate for demand accesses
system.cpu1.dcache.overall_mshr_miss_rate::.cpu1.data     0.132969                       # mshr miss rate for overall accesses
system.cpu1.dcache.overall_mshr_miss_rate::total     0.132969                       # mshr miss rate for overall accesses
system.cpu1.dcache.demand_avg_mshr_miss_latency::.cpu1.data 62770.652340                       # average overall mshr miss latency
system.cpu1.dcache.demand_avg_mshr_miss_latency::total 62770.652340                       # average overall mshr miss latency
system.cpu1.dcache.overall_avg_mshr_miss_latency::.cpu1.data 62767.117827                       # average overall mshr miss latency
system.cpu1.dcache.overall_avg_mshr_miss_latency::total 62767.117827                       # average overall mshr miss latency
system.cpu1.dcache.replacements                274682                       # number of replacements
system.cpu1.dcache.ReadReq_hits::.cpu1.data      1175840                       # number of ReadReq hits
system.cpu1.dcache.ReadReq_hits::total        1175840                       # number of ReadReq hits
system.cpu1.dcache.ReadReq_misses::.cpu1.data       264268                       # number of ReadReq misses
system.cpu1.dcache.ReadReq_misses::total       264268                       # number of ReadReq misses
system.cpu1.dcache.ReadReq_miss_latency::.cpu1.data  16832088000                       # number of ReadReq miss cycles
system.cpu1.dcache.ReadReq_miss_latency::total  16832088000                       # number of ReadReq miss cycles
system.cpu1.dcache.ReadReq_accesses::.cpu1.data      1440108                       # number of ReadReq accesses(hits+misses)
system.cpu1.dcache.ReadReq_accesses::total      1440108                       # number of ReadReq accesses(hits+misses)
system.cpu1.dcache.ReadReq_miss_rate::.cpu1.data     0.183506                       # miss rate for ReadReq accesses
system.cpu1.dcache.ReadReq_miss_rate::total     0.183506                       # miss rate for ReadReq accesses
system.cpu1.dcache.ReadReq_avg_miss_latency::.cpu1.data 63693.250791                       # average ReadReq miss latency
system.cpu1.dcache.ReadReq_avg_miss_latency::total 63693.250791                       # average ReadReq miss latency
system.cpu1.dcache.ReadReq_mshr_hits::.cpu1.data         1467                       # number of ReadReq MSHR hits
system.cpu1.dcache.ReadReq_mshr_hits::total         1467                       # number of ReadReq MSHR hits
system.cpu1.dcache.ReadReq_mshr_misses::.cpu1.data       262801                       # number of ReadReq MSHR misses
system.cpu1.dcache.ReadReq_mshr_misses::total       262801                       # number of ReadReq MSHR misses
system.cpu1.dcache.ReadReq_mshr_miss_latency::.cpu1.data  16492612500                       # number of ReadReq MSHR miss cycles
system.cpu1.dcache.ReadReq_mshr_miss_latency::total  16492612500                       # number of ReadReq MSHR miss cycles
system.cpu1.dcache.ReadReq_mshr_miss_rate::.cpu1.data     0.182487                       # mshr miss rate for ReadReq accesses
system.cpu1.dcache.ReadReq_mshr_miss_rate::total     0.182487                       # mshr miss rate for ReadReq accesses
system.cpu1.dcache.ReadReq_avg_mshr_miss_latency::.cpu1.data 62757.038596                       # average ReadReq mshr miss latency
system.cpu1.dcache.ReadReq_avg_mshr_miss_latency::total 62757.038596                       # average ReadReq mshr miss latency
system.cpu1.dcache.WriteReq_hits::.cpu1.data       605106                       # number of WriteReq hits
system.cpu1.dcache.WriteReq_hits::total        605106                       # number of WriteReq hits
system.cpu1.dcache.WriteReq_misses::.cpu1.data        20553                       # number of WriteReq misses
system.cpu1.dcache.WriteReq_misses::total        20553                       # number of WriteReq misses
system.cpu1.dcache.WriteReq_miss_latency::.cpu1.data   1315676500                       # number of WriteReq miss cycles
system.cpu1.dcache.WriteReq_miss_latency::total   1315676500                       # number of WriteReq miss cycles
system.cpu1.dcache.WriteReq_accesses::.cpu1.data       625659                       # number of WriteReq accesses(hits+misses)
system.cpu1.dcache.WriteReq_accesses::total       625659                       # number of WriteReq accesses(hits+misses)
system.cpu1.dcache.WriteReq_miss_rate::.cpu1.data     0.032850                       # miss rate for WriteReq accesses
[...]
system.mem_ctrls.bytesPerActivate::stdev   367.285040                       # Bytes accessed per row activation
system.mem_ctrls.bytesPerActivate::0-127        14191     23.61%     23.61% # Bytes accessed per row activation
system.mem_ctrls.bytesPerActivate::128-255        15221     25.32%     48.93% # Bytes accessed per row activation
system.mem_ctrls.bytesPerActivate::256-383         6514     10.84%     59.77% # Bytes accessed per row activation
system.mem_ctrls.bytesPerActivate::384-511         4499      7.48%     67.25% # Bytes accessed per row activation
system.mem_ctrls.bytesPerActivate::512-639         2774      4.61%     71.87% # Bytes accessed per row activation
system.mem_ctrls.bytesPerActivate::640-767         1973      3.28%     75.15% # Bytes accessed per row activation
system.mem_ctrls.bytesPerActivate::768-895         1601      2.66%     77.81% # Bytes accessed per row activation
system.mem_ctrls.bytesPerActivate::896-1023         1424      2.37%     80.18% # Bytes accessed per row activation
system.mem_ctrls.bytesPerActivate::1024-1151        11913     19.82%    100.00% # Bytes accessed per row activation
system.mem_ctrls.bytesPerActivate::total        60110                       # Bytes accessed per row activation
system.mem_ctrls.rdPerTurnAround::samples         7582                       # Reads before turning the bus around for writes
system.mem_ctrls.rdPerTurnAround::mean      34.175152                       # Reads before turning the bus around for writes
system.mem_ctrls.rdPerTurnAround::gmean     24.775853                       # Reads before turning the bus around for writes
system.mem_ctrls.rdPerTurnAround::stdev     38.940092                       # Reads before turning the bus around for writes
system.mem_ctrls.rdPerTurnAround::0-63           6311     83.24%     83.24% # Reads before turning the bus around for writes
system.mem_ctrls.rdPerTurnAround::64-127         1142     15.06%     98.30% # Reads before turning the bus around for writes
system.mem_ctrls.rdPerTurnAround::128-191          105      1.38%     99.68% # Reads before turning the bus around for writes
system.mem_ctrls.rdPerTurnAround::192-255            7      0.09%     99.78% # Reads before turning the bus around for writes
system.mem_ctrls.rdPerTurnAround::256-319            7      0.09%     99.87% # Reads before turning the bus around for writes
system.mem_ctrls.rdPerTurnAround::320-383            6      0.08%     99.95% # Reads before turning the bus around for writes
system.mem_ctrls.rdPerTurnAround::448-511            1      0.01%     99.96% # Reads before turning the bus around for writes
system.mem_ctrls.rdPerTurnAround::576-639            1      0.01%     99.97% # Reads before turning the bus around for writes
system.mem_ctrls.rdPerTurnAround::640-703            1      0.01%     99.99% # Reads before turning the bus around for writes
system.mem_ctrls.rdPerTurnAround::1216-1279            1      0.01%    100.00% # Reads before turning the bus around for writes
system.mem_ctrls.rdPerTurnAround::total          7582                       # Reads before turning the bus around for writes
system.mem_ctrls.wrPerTurnAround::samples         7582                       # Writes before turning the bus around for reads
system.mem_ctrls.wrPerTurnAround::mean      16.573595                       # Writes before turning the bus around for reads
system.mem_ctrls.wrPerTurnAround::gmean     16.548989                       # Writes before turning the bus around for reads
system.mem_ctrls.wrPerTurnAround::stdev      0.921996                       # Writes before turning the bus around for reads
system.mem_ctrls.wrPerTurnAround::16             5320     70.17%     70.17% # Writes before turning the bus around for reads
system.mem_ctrls.wrPerTurnAround::17              356      4.70%     74.86% # Writes before turning the bus around for reads
system.mem_ctrls.wrPerTurnAround::18             1750     23.08%     97.94% # Writes before turning the bus around for reads
system.mem_ctrls.wrPerTurnAround::19              133      1.75%     99.70% # Writes before turning the bus around for reads
system.mem_ctrls.wrPerTurnAround::20               21      0.28%     99.97% # Writes before turning the bus around for reads
system.mem_ctrls.wrPerTurnAround::21                2      0.03%    100.00% # Writes before turning the bus around for reads
system.mem_ctrls.wrPerTurnAround::total          7582                       # Writes before turning the bus around for reads
system.mem_ctrls.bytesReadDRAM               16583808                       # Total number of bytes read from DRAM
system.mem_ctrls.bytesReadWrQ                   46848                       # Total number of bytes read from write queue
system.mem_ctrls.bytesWritten                 8042304                       # Total number of bytes written to DRAM
system.mem_ctrls.bytesReadSys                16630656                       # Total read bytes from the system interface side
system.mem_ctrls.bytesWrittenSys              8047872                       # Total written bytes from the system interface side
system.mem_ctrls.avgRdBW                       499.80                       # Average DRAM read bandwidth in MiByte/s
system.mem_ctrls.avgWrBW                       242.38                       # Average achieved write bandwidth in MiByte/s
system.mem_ctrls.avgRdBWSys                    501.21                       # Average system read bandwidth in MiByte/s
system.mem_ctrls.avgWrBWSys                    242.55                       # Average system write bandwidth in MiByte/s
system.mem_ctrls.peakBW                      12800.00                       # Theoretical peak bandwidth in MiByte/s
system.mem_ctrls.busUtil                         5.80                       # Data bus utilization in percentage
system.mem_ctrls.busUtilRead                     3.90                       # Data bus utilization in percentage for reads
system.mem_ctrls.busUtilWrite                    1.89                       # Data bus utilization in percentage for writes
system.mem_ctrls.totGap                   33180801000                       # Total gap between requests
system.mem_ctrls.avgGap                      86049.35                       # Average gap between requests
system.mem_ctrls.masterReadBytes::.cpu0.inst       117248                       # Per-master bytes read from memory
system.mem_ctrls.masterReadBytes::.cpu0.data      2663296                       # Per-master bytes read from memory
system.mem_ctrls.masterReadBytes::.cpu1.inst       496832                       # Per-master bytes read from memory
system.mem_ctrls.masterReadBytes::.cpu1.data     13306432                       # Per-master bytes read from memory
system.mem_ctrls.masterWriteBytes::.writebacks      8042304                       # Per-master bytes write to memory
system.mem_ctrls.masterReadRate::.cpu0.inst 3533603.568454987369                       # Per-master bytes read from memory rate (Bytes/sec)
system.mem_ctrls.masterReadRate::.cpu0.data 80266036.516204059124                       # Per-master bytes read from memory rate (Bytes/sec)
system.mem_ctrls.masterReadRate::.cpu1.inst 14973452.239037154242                       # Per-master bytes read from memory rate (Bytes/sec)
system.mem_ctrls.masterReadRate::.cpu1.data 401027357.384378731251                       # Per-master bytes read from memory rate (Bytes/sec)
system.mem_ctrls.masterWriteRate::.writebacks 242377815.510710775852                       # Per-master bytes write to memory rate (Bytes/sec)
system.mem_ctrls.masterReadAccesses::.cpu0.inst         1832                       # Per-master read serviced memory accesses
system.mem_ctrls.masterReadAccesses::.cpu0.data        41637                       # Per-master read serviced memory accesses
system.mem_ctrls.masterReadAccesses::.cpu1.inst         7763                       # Per-master read serviced memory accesses
system.mem_ctrls.masterReadAccesses::.cpu1.data       208622                       # Per-master read serviced memory accesses
system.mem_ctrls.masterWriteAccesses::.writebacks       125748                       # Per-master write serviced memory accesses
system.mem_ctrls.masterReadTotalLat::.cpu0.inst     53924500                       # Per-master read total memory access latency
system.mem_ctrls.masterReadTotalLat::.cpu0.data   1372853750                       # Per-master read total memory access latency
system.mem_ctrls.masterReadTotalLat::.cpu1.inst    235380250                       # Per-master read total memory access latency
system.mem_ctrls.masterReadTotalLat::.cpu1.data   5444557000                       # Per-master read total memory access latency
system.mem_ctrls.masterWriteTotalLat::.writebacks 807019779750                       # Per-master write total memory access latency
system.mem_ctrls.masterReadAvgLat::.cpu0.inst     29434.77                       # Per-master read average memory access latency
system.mem_ctrls.masterReadAvgLat::.cpu0.data     32971.97                       # Per-master read average memory access latency
system.mem_ctrls.masterReadAvgLat::.cpu1.inst     30320.78                       # Per-master read average memory access latency
system.mem_ctrls.masterReadAvgLat::.cpu1.data     26097.71                       # Per-master read average memory access latency
system.mem_ctrls.masterWriteAvgLat::.writebacks   6417754.40                       # Per-master write average memory access latency
system.mem_ctrls.pageHitRate                    84.37                       # Row buffer hit rate, read and write combined
system.mem_ctrls.rank1.actEnergy            169096620                       # Energy for activate commands per rank (pJ)
system.mem_ctrls.rank1.preEnergy             89865600                       # Energy for precharge commands per rank (pJ)
system.mem_ctrls.rank1.readEnergy           612090780                       # Energy for read commands per rank (pJ)
system.mem_ctrls.rank1.writeEnergy          228484620                       # Energy for write commands per rank (pJ)
system.mem_ctrls.rank1.refreshEnergy     2618981040.000000                       # Energy for refresh commands per rank (pJ)
system.mem_ctrls.rank1.actBackEnergy      11737897140                       # Energy for active background per rank (pJ)
system.mem_ctrls.rank1.preBackEnergy       2856904800                       # Energy for precharge background per rank (pJ)
system.mem_ctrls.rank1.actPowerDownEnergy            0                       # Energy for active power-down per rank (pJ)
system.mem_ctrls.rank1.prePowerDownEnergy            0                       # Energy for precharge power-down per rank (pJ)
system.mem_ctrls.rank1.selfRefreshEnergy            0                       # Energy for self refresh per rank (pJ)
system.mem_ctrls.rank1.totalEnergy        18313320600                       # Total energy per rank (pJ)
system.mem_ctrls.rank1.averagePower        551.924255                       # Core power per rank (mW)
system.mem_ctrls.rank1.totalIdleTime                0                       # Total Idle time Per DRAM Rank
system.mem_ctrls.rank1.memoryStateTime::IDLE   7308282500                       # Time in different power states
system.mem_ctrls.rank1.memoryStateTime::REF   1107860000                       # Time in different power states
system.mem_ctrls.rank1.memoryStateTime::SREF            0                       # Time in different power states
system.mem_ctrls.rank1.memoryStateTime::PRE_PDN            0                       # Time in different power states
system.mem_ctrls.rank1.memoryStateTime::ACT  24764716000                       # Time in different power states
system.mem_ctrls.rank1.memoryStateTime::ACT_PDN            0                       # Time in different power states
system.mem_ctrls.rank0.actEnergy            260124480                       # Energy for activate commands per rank (pJ)
system.mem_ctrls.rank0.preEnergy            138251850                       # Energy for precharge commands per rank (pJ)
system.mem_ctrls.rank0.readEnergy          1238040300                       # Energy for read commands per rank (pJ)
system.mem_ctrls.rank0.writeEnergy          427465800                       # Energy for write commands per rank (pJ)
system.mem_ctrls.rank0.refreshEnergy     2618981040.000000                       # Energy for refresh commands per rank (pJ)
system.mem_ctrls.rank0.actBackEnergy      13460190900                       # Energy for active background per rank (pJ)
system.mem_ctrls.rank0.preBackEnergy       1406552160                       # Energy for precharge background per rank (pJ)
system.mem_ctrls.rank0.actPowerDownEnergy            0                       # Energy for active power-down per rank (pJ)
system.mem_ctrls.rank0.prePowerDownEnergy            0                       # Energy for precharge power-down per rank (pJ)
system.mem_ctrls.rank0.selfRefreshEnergy            0                       # Energy for self refresh per rank (pJ)
system.mem_ctrls.rank0.totalEnergy        19549606530                       # Total energy per rank (pJ)
system.mem_ctrls.rank0.averagePower        589.183265                       # Core power per rank (mW)
system.mem_ctrls.rank0.totalIdleTime                0                       # Total Idle time Per DRAM Rank
system.mem_ctrls.rank0.memoryStateTime::IDLE   3515318750                       # Time in different power states
system.mem_ctrls.rank0.memoryStateTime::REF   1107860000                       # Time in different power states
system.mem_ctrls.rank0.memoryStateTime::SREF            0                       # Time in different power states
system.mem_ctrls.rank0.memoryStateTime::PRE_PDN            0                       # Time in different power states
system.mem_ctrls.rank0.memoryStateTime::ACT  28557679750                       # Time in different power states
system.mem_ctrls.rank0.memoryStateTime::ACT_PDN            0                       # Time in different power states
system.mem_ctrls.power_state.pwrStateResidencyTicks::UNDEFINED  33180858500                       # Cumulative time (in ticks) in various power states
system.cpu_clk_domain.clock                       500                       # Clock period in ticks
system.tol2bus.trans_dist::ReadResp           2421065                       # Transaction distribution
system.tol2bus.trans_dist::WritebackDirty       710551                       # Transaction distribution
system.tol2bus.trans_dist::WritebackClean      1709527                       # Transaction distribution
system.tol2bus.trans_dist::CleanEvict          461762                       # Transaction distribution
system.tol2bus.trans_dist::ReadExReq           200495                       # Transaction distribution
system.tol2bus.trans_dist::ReadExResp          200495                       # Transaction distribution
system.tol2bus.trans_dist::ReadCleanReq       1709559                       # Transaction distribution
system.tol2bus.trans_dist::ReadSharedReq       711507                       # Transaction distribution
system.tol2bus.pkt_count_system.cpu0.icache.mem_side::system.l2.cpu_side      4908008                       # Packet count per connected master and slave (bytes)
system.tol2bus.pkt_count_system.cpu0.dcache.mem_side::system.l2.cpu_side      1911893                       # Packet count per connected master and slave (bytes)
system.tol2bus.pkt_count_system.cpu1.icache.mem_side::system.l2.cpu_side       220637                       # Packet count per connected master and slave (bytes)
system.tol2bus.pkt_count_system.cpu1.dcache.mem_side::system.l2.cpu_side       824079                       # Packet count per connected master and slave (bytes)
system.tol2bus.pkt_count::total               7864617                       # Packet count per connected master and slave (bytes)
system.tol2bus.pkt_size_system.cpu0.icache.mem_side::system.l2.cpu_side    209408000                       # Cumulative packet size per connected master and slave (bytes)
system.tol2bus.pkt_size_system.cpu0.dcache.mem_side::system.l2.cpu_side     68553152                       # Cumulative packet size per connected master and slave (bytes)
system.tol2bus.pkt_size_system.cpu1.icache.mem_side::system.l2.cpu_side      9413504                       # Cumulative packet size per connected master and slave (bytes)
system.tol2bus.pkt_size_system.cpu1.dcache.mem_side::system.l2.cpu_side     27242304                       # Cumulative packet size per connected master and slave (bytes)
system.tol2bus.pkt_size::total              314616960                       # Cumulative packet size per connected master and slave (bytes)
system.tol2bus.snoops                          260344                       # Total snoops (count)
system.tol2bus.snoopTraffic                   8047872                       # Total snoop traffic (bytes)
system.tol2bus.snoop_fanout::samples          2881905                       # Request fanout histogram
system.tol2bus.snoop_fanout::mean            0.000850                       # Request fanout histogram
system.tol2bus.snoop_fanout::stdev           0.029151                       # Request fanout histogram
system.tol2bus.snoop_fanout::underflows             0      0.00%      0.00% # Request fanout histogram
system.tol2bus.snoop_fanout::0                2879454     99.91%     99.91% # Request fanout histogram
system.tol2bus.snoop_fanout::1                   2451      0.09%    100.00% # Request fanout histogram
system.tol2bus.snoop_fanout::2                      0      0.00%    100.00% # Request fanout histogram
system.tol2bus.snoop_fanout::3                      0      0.00%    100.00% # Request fanout histogram
system.tol2bus.snoop_fanout::4                      0      0.00%    100.00% # Request fanout histogram
system.tol2bus.snoop_fanout::5                      0      0.00%    100.00% # Request fanout histogram
system.tol2bus.snoop_fanout::6                      0      0.00%    100.00% # Request fanout histogram
system.tol2bus.snoop_fanout::7                      0      0.00%    100.00% # Request fanout histogram
system.tol2bus.snoop_fanout::8                      0      0.00%    100.00% # Request fanout histogram
system.tol2bus.snoop_fanout::overflows              0      0.00%    100.00% # Request fanout histogram
system.tol2bus.snoop_fanout::min_value              0                       # Request fanout histogram
system.tol2bus.snoop_fanout::max_value              1                       # Request fanout histogram
system.tol2bus.snoop_fanout::total            2881905                       # Request fanout histogram
system.tol2bus.reqLayer0.occupancy         4915858500                       # Layer occupancy (ticks)
system.tol2bus.reqLayer0.utilization             14.8                       # Layer utilization (%)
system.tol2bus.respLayer5.occupancy         415635309                       # Layer occupancy (ticks)
system.tol2bus.respLayer5.utilization             1.3                       # Layer utilization (%)
system.tol2bus.respLayer4.occupancy         110507136                       # Layer occupancy (ticks)
system.tol2bus.respLayer4.utilization             0.3                       # Layer utilization (%)
system.tol2bus.respLayer1.occupancy         956062283                       # Layer occupancy (ticks)
system.tol2bus.respLayer1.utilization             2.9                       # Layer utilization (%)
system.tol2bus.respLayer0.occupancy        2454082858                       # Layer occupancy (ticks)
system.tol2bus.respLayer0.utilization             7.4                       # Layer utilization (%)
system.tol2bus.power_state.pwrStateResidencyTicks::UNDEFINED  33180858500                       # Cumulative time (in ticks) in various power states

---------- End Simulation Statistics   ----------
