
---------- Begin Simulation Statistics ----------
final_tick                                59171848500                       # Number of ticks from beginning of simulation (restored from checkpoints and never reset)
host_inst_rate                                 207993                       # Simulator instruction rate (inst/s)
host_mem_usage                                4434624                       # Number of bytes of host memory used
host_op_rate                                   332312                       # Simulator op (including micro ops) rate (op/s)
host_seconds                                    72.37                       # Real time elapsed on the host
host_tick_rate                              817577762                       # Simulator tick rate (ticks/s)
sim_freq                                 1000000000000                       # Frequency of simulated ticks
sim_insts                                    15053393                       # Number of instructions simulated
sim_ops                                      24050944                       # Number of ops (including micro ops) simulated
sim_seconds                                  0.059172                       # Number of seconds simulated
sim_ticks                                 59171848500                       # Number of ticks simulated
system.cpu0.branchPred.BTBCorrect                   0                       # Number of correct BTB predictions (this stat may not work properly.
system.cpu0.branchPred.BTBHitPct                  nan                       # BTB Hit Percentage
system.cpu0.branchPred.BTBHits                      0                       # Number of BTB hits
system.cpu0.branchPred.BTBLookups                   0                       # Number of BTB lookups
system.cpu0.branchPred.RASInCorrect                 0                       # Number of incorrect RAS predictions.
system.cpu0.branchPred.condIncorrect               30                       # Number of conditional branches incorrect
system.cpu0.branchPred.condPredicted               68                       # Number of conditional branches predicted
system.cpu0.branchPred.indirectHits                 0                       # Number of indirect target hits.
system.cpu0.branchPred.indirectLookups             21                       # Number of indirect predictor lookups.
system.cpu0.branchPred.indirectMisses              21                       # Number of indirect misses.
system.cpu0.branchPred.lookups                     68                       # Number of BP lookups
system.cpu0.branchPred.usedRAS                      0                       # Number of times the RAS was used to get a target.
system.cpu0.branchPredindirectMispredicted           12                       # Number of mispredicted indirect branches.
system.cpu0.committedInsts                    5053392                       # Number of instructions committed
system.cpu0.committedOps                      9541576                       # Number of ops (including micro ops) committed
system.cpu0.cpi                             23.418640                       # CPI: cycles per instruction
system.cpu0.discardedOps                      3156854                       # Number of ops (including micro ops) which were discarded before commit
system.cpu0.dtb.rdAccesses                     796738                       # TLB accesses on read requests
system.cpu0.dtb.rdMisses                         2011                       # TLB misses on read requests
system.cpu0.dtb.wrAccesses                    4839573                       # TLB accesses on write requests
system.cpu0.dtb.wrMisses                        18460                       # TLB misses on write requests
system.cpu0.fetch2.amo_instructions                 0                       # Number of memory atomic instructions successfully decoded
system.cpu0.fetch2.fp_instructions                  0                       # Number of floating point instructions successfully decoded
system.cpu0.fetch2.int_instructions                 8                       # Number of integer instructions successfully decoded
system.cpu0.fetch2.load_instructions                0                       # Number of memory load instructions successfully decoded
system.cpu0.fetch2.store_instructions               0                       # Number of memory store instructions successfully decoded
system.cpu0.fetch2.vec_instructions                 0                       # Number of SIMD instructions successfully decoded
system.cpu0.idleCycles                      102409145                       # Total number of cycles that the object has spent stopped
system.cpu0.ipc                              0.042701                       # IPC: instructions per cycle
system.cpu0.itb.rdAccesses                          0                       # TLB accesses on read requests
system.cpu0.itb.rdMisses                            0                       # TLB misses on read requests
system.cpu0.itb.wrAccesses                    1996424                       # TLB accesses on write requests
system.cpu0.itb.wrMisses                          192                       # TLB misses on write requests
system.cpu0.numCycles                       118343569                       # number of cpu cycles simulated
system.cpu0.numFetchSuspends                        0                       # Number of times Execute suspended instruction fetching
system.cpu0.numWorkItemsCompleted                   0                       # number of work items this cpu completed
system.cpu0.numWorkItemsStarted                     0                       # number of work items this cpu started
system.cpu0.op_class_0::No_OpClass               2098      0.02%      0.02% # Class of committed instruction
system.cpu0.op_class_0::IntAlu                4494662     47.11%     47.13% # Class of committed instruction
system.cpu0.op_class_0::IntMult                   641      0.01%     47.13% # Class of committed instruction
system.cpu0.op_class_0::IntDiv                   1317      0.01%     47.15% # Class of committed instruction
system.cpu0.op_class_0::FloatAdd                  189      0.00%     47.15% # Class of committed instruction
system.cpu0.op_class_0::FloatCmp                    0      0.00%     47.15% # Class of committed instruction
system.cpu0.op_class_0::FloatCvt                   96      0.00%     47.15% # Class of committed instruction
system.cpu0.op_class_0::FloatMult                   0      0.00%     47.15% # Class of committed instruction
system.cpu0.op_class_0::FloatMultAcc                0      0.00%     47.15% # Class of committed instruction
system.cpu0.op_class_0::FloatDiv                    0      0.00%     47.15% # Class of committed instruction
system.cpu0.op_class_0::FloatMisc                   0      0.00%     47.15% # Class of committed instruction
system.cpu0.op_class_0::FloatSqrt                   0      0.00%     47.15% # Class of committed instruction
system.cpu0.op_class_0::SimdAdd                   916      0.01%     47.16% # Class of committed instruction
system.cpu0.op_class_0::SimdAddAcc                  0      0.00%     47.16% # Class of committed instruction
system.cpu0.op_class_0::SimdAlu                   943      0.01%     47.17% # Class of committed instruction
system.cpu0.op_class_0::SimdCmp                     0      0.00%     47.17% # Class of committed instruction
system.cpu0.op_class_0::SimdCvt                  1230      0.01%     47.18% # Class of committed instruction
system.cpu0.op_class_0::SimdMisc                  843      0.01%     47.19% # Class of committed instruction
system.cpu0.op_class_0::SimdMult                    0      0.00%     47.19% # Class of committed instruction
system.cpu0.op_class_0::SimdMultAcc                 0      0.00%     47.19% # Class of committed instruction
system.cpu0.op_class_0::SimdShift                 388      0.00%     47.20% # Class of committed instruction
system.cpu0.op_class_0::SimdShiftAcc                0      0.00%     47.20% # Class of committed instruction
system.cpu0.op_class_0::SimdDiv                     0      0.00%     47.20% # Class of committed instruction
system.cpu0.op_class_0::SimdSqrt                    0      0.00%     47.20% # Class of committed instruction
system.cpu0.op_class_0::SimdFloatAdd                0      0.00%     47.20% # Class of committed instruction
system.cpu0.op_class_0::SimdFloatAlu                0      0.00%     47.20% # Class of committed instruction
system.cpu0.op_class_0::SimdFloatCmp                0      0.00%     47.20% # Class of committed instruction
system.cpu0.op_class_0::SimdFloatCvt                0      0.00%     47.20% # Class of committed instruction
system.cpu0.op_class_0::SimdFloatDiv                0      0.00%     47.20% # Class of committed instruction
system.cpu0.op_class_0::SimdFloatMisc               0      0.00%     47.20% # Class of committed instruction
system.cpu0.op_class_0::SimdFloatMult               0      0.00%     47.20% # Class of committed instruction
system.cpu0.op_class_0::SimdFloatMultAcc            0      0.00%     47.20% # Class of committed instruction
system.cpu0.op_class_0::SimdFloatSqrt               0      0.00%     47.20% # Class of committed instruction
system.cpu0.op_class_0::SimdReduceAdd               0      0.00%     47.20% # Class of committed instruction
system.cpu0.op_class_0::SimdReduceAlu               0      0.00%     47.20% # Class of committed instruction
system.cpu0.op_class_0::SimdReduceCmp               0      0.00%     47.20% # Class of committed instruction
system.cpu0.op_class_0::SimdFloatReduceAdd            0      0.00%     47.20% # Class of committed instruction
system.cpu0.op_class_0::SimdFloatReduceCmp            0      0.00%     47.20% # Class of committed instruction
system.cpu0.op_class_0::SimdAes                     0      0.00%     47.20% # Class of committed instruction
system.cpu0.op_class_0::SimdAesMix                  0      0.00%     47.20% # Class of committed instruction
system.cpu0.op_class_0::SimdSha1Hash                0      0.00%     47.20% # Class of committed instruction
system.cpu0.op_class_0::SimdSha1Hash2               0      0.00%     47.20% # Class of committed instruction
system.cpu0.op_class_0::SimdSha256Hash              0      0.00%     47.20% # Class of committed instruction
system.cpu0.op_class_0::SimdSha256Hash2             0      0.00%     47.20% # Class of committed instruction
system.cpu0.op_class_0::SimdShaSigma2               0      0.00%     47.20% # Class of committed instruction
system.cpu0.op_class_0::SimdShaSigma3               0      0.00%     47.20% # Class of committed instruction
system.cpu0.op_class_0::SimdPredAlu                 0      0.00%     47.20% # Class of committed instruction
system.cpu0.op_class_0::MemRead                199681      2.09%     49.29% # Class of committed instruction
system.cpu0.op_class_0::MemWrite               133412      1.40%     50.69% # Class of committed instruction
system.cpu0.op_class_0::FloatMemRead             1610      0.02%     50.70% # Class of committed instruction
system.cpu0.op_class_0::FloatMemWrite         4703550     49.30%    100.00% # Class of committed instruction
system.cpu0.op_class_0::IprAccess                   0      0.00%    100.00% # Class of committed instruction
system.cpu0.op_class_0::InstPrefetch                0      0.00%    100.00% # Class of committed instruction
system.cpu0.op_class_0::total                 9541576                       # Class of committed instruction
system.cpu0.tickCycles                       15934424                       # Number of cycles that the object actually ticked
system.cpu0.workload.numSyscalls                   30                       # Number of system calls
system.cpu1.branchPred.BTBCorrect                   0                       # Number of correct BTB predictions (this stat may not work properly.
system.cpu1.branchPred.BTBHitPct                  nan                       # BTB Hit Percentage
system.cpu1.branchPred.BTBHits                      0                       # Number of BTB hits
system.cpu1.branchPred.BTBLookups                   0                       # Number of BTB lookups
system.cpu1.branchPred.RASInCorrect                 0                       # Number of incorrect RAS predictions.
system.cpu1.branchPred.condIncorrect               40                       # Number of conditional branches incorrect
system.cpu1.branchPred.condPredicted               84                       # Number of conditional branches predicted
system.cpu1.branchPred.indirectHits                 0                       # Number of indirect target hits.
system.cpu1.branchPred.indirectLookups             25                       # Number of indirect predictor lookups.
system.cpu1.branchPred.indirectMisses              25                       # Number of indirect misses.
system.cpu1.branchPred.lookups                     84                       # Number of BP lookups
system.cpu1.branchPred.usedRAS                      0                       # Number of times the RAS was used to get a target.
system.cpu1.branchPredindirectMispredicted           11                       # Number of mispredicted indirect branches.
system.cpu1.committedInsts                   10000001                       # Number of instructions committed
system.cpu1.committedOps                     14509368                       # Number of ops (including micro ops) committed
system.cpu1.cpi                             11.834369                       # CPI: cycles per instruction
system.cpu1.discardedOps                      1920433                       # Number of ops (including micro ops) which were discarded before commit
system.cpu1.dtb.rdAccesses                    1871002                       # TLB accesses on read requests
system.cpu1.dtb.rdMisses                       365554                       # TLB misses on read requests
system.cpu1.dtb.wrAccesses                    7295810                       # TLB accesses on write requests
system.cpu1.dtb.wrMisses                        28449                       # TLB misses on write requests
system.cpu1.fetch2.amo_instructions                 0                       # Number of memory atomic instructions successfully decoded
system.cpu1.fetch2.fp_instructions                  0                       # Number of floating point instructions successfully decoded
system.cpu1.fetch2.int_instructions                 8                       # Number of integer instructions successfully decoded
system.cpu1.fetch2.load_instructions                0                       # Number of memory load instructions successfully decoded
system.cpu1.fetch2.store_instructions               0                       # Number of memory store instructions successfully decoded
system.cpu1.fetch2.vec_instructions                 0                       # Number of SIMD instructions successfully decoded
system.cpu1.idleCycles                       98371575                       # Total number of cycles that the object has spent stopped
system.cpu1.ipc                              0.084500                       # IPC: instructions per cycle
system.cpu1.itb.rdAccesses                          0                       # TLB accesses on read requests
system.cpu1.itb.rdMisses                            0                       # TLB misses on read requests
system.cpu1.itb.wrAccesses                    2313330                       # TLB accesses on write requests
system.cpu1.itb.wrMisses                          250                       # TLB misses on write requests
system.cpu1.numCycles                       118343697                       # number of cpu cycles simulated
system.cpu1.numFetchSuspends                        0                       # Number of times Execute suspended instruction fetching
system.cpu1.numWorkItemsCompleted                   0                       # number of work items this cpu completed
system.cpu1.numWorkItemsStarted                     0                       # number of work items this cpu started
system.cpu1.op_class_0::No_OpClass               1997      0.01%      0.01% # Class of committed instruction
system.cpu1.op_class_0::IntAlu                4979363     34.32%     34.33% # Class of committed instruction
system.cpu1.op_class_0::IntMult                    36      0.00%     34.33% # Class of committed instruction
system.cpu1.op_class_0::IntDiv                   1447      0.01%     34.34% # Class of committed instruction
system.cpu1.op_class_0::FloatAdd              1090392      7.52%     41.86% # Class of committed instruction
system.cpu1.op_class_0::FloatCmp                    0      0.00%     41.86% # Class of committed instruction
system.cpu1.op_class_0::FloatCvt                  112      0.00%     41.86% # Class of committed instruction
system.cpu1.op_class_0::FloatMult                   0      0.00%     41.86% # Class of committed instruction
system.cpu1.op_class_0::FloatMultAcc                0      0.00%     41.86% # Class of committed instruction
system.cpu1.op_class_0::FloatDiv                    0      0.00%     41.86% # Class of committed instruction
system.cpu1.op_class_0::FloatMisc                   0      0.00%     41.86% # Class of committed instruction
system.cpu1.op_class_0::FloatSqrt                   0      0.00%     41.86% # Class of committed instruction
system.cpu1.op_class_0::SimdAdd                  1140      0.01%     41.87% # Class of committed instruction
system.cpu1.op_class_0::SimdAddAcc                  0      0.00%     41.87% # Class of committed instruction
system.cpu1.op_class_0::SimdAlu                  1367      0.01%     41.88% # Class of committed instruction
system.cpu1.op_class_0::SimdCmp                    12      0.00%     41.88% # Class of committed instruction
system.cpu1.op_class_0::SimdCvt                  1866      0.01%     41.89% # Class of committed instruction
system.cpu1.op_class_0::SimdMisc                 1287      0.01%     41.90% # Class of committed instruction
system.cpu1.op_class_0::SimdMult                    0      0.00%     41.90% # Class of committed instruction
system.cpu1.op_class_0::SimdMultAcc                 0      0.00%     41.90% # Class of committed instruction
system.cpu1.op_class_0::SimdShift                 426      0.00%     41.90% # Class of committed instruction
system.cpu1.op_class_0::SimdShiftAcc                0      0.00%     41.90% # Class of committed instruction
system.cpu1.op_class_0::SimdDiv                     0      0.00%     41.90% # Class of committed instruction
system.cpu1.op_class_0::SimdSqrt                    0      0.00%     41.90% # Class of committed instruction
system.cpu1.op_class_0::SimdFloatAdd                0      0.00%     41.90% # Class of committed instruction
system.cpu1.op_class_0::SimdFloatAlu                0      0.00%     41.90% # Class of committed instruction
system.cpu1.op_class_0::SimdFloatCmp                0      0.00%     41.90% # Class of committed instruction
system.cpu1.op_class_0::SimdFloatCvt                2      0.00%     41.90% # Class of committed instruction
system.cpu1.op_class_0::SimdFloatDiv                0      0.00%     41.90% # Class of committed instruction
system.cpu1.op_class_0::SimdFloatMisc               0      0.00%     41.90% # Class of committed instruction
system.cpu1.op_class_0::SimdFloatMult               0      0.00%     41.90% # Class of committed instruction
system.cpu1.op_class_0::SimdFloatMultAcc            0      0.00%     41.90% # Class of committed instruction
system.cpu1.op_class_0::SimdFloatSqrt               0      0.00%     41.90% # Class of committed instruction
system.cpu1.op_class_0::SimdReduceAdd               0      0.00%     41.90% # Class of committed instruction
system.cpu1.op_class_0::SimdReduceAlu               0      0.00%     41.90% # Class of committed instruction
system.cpu1.op_class_0::SimdReduceCmp               0      0.00%     41.90% # Class of committed instruction
system.cpu1.op_class_0::SimdFloatReduceAdd            0      0.00%     41.90% # Class of committed instruction
system.cpu1.op_class_0::SimdFloatReduceCmp            0      0.00%     41.90% # Class of committed instruction
system.cpu1.op_class_0::SimdAes                     0      0.00%     41.90% # Class of committed instruction
system.cpu1.op_class_0::SimdAesMix                  0      0.00%     41.90% # Class of committed instruction
system.cpu1.op_class_0::SimdSha1Hash                0      0.00%     41.90% # Class of committed instruction
system.cpu1.op_class_0::SimdSha1Hash2               0      0.00%     41.90% # Class of committed instruction
system.cpu1.op_class_0::SimdSha256Hash              0      0.00%     41.90% # Class of committed instruction
system.cpu1.op_class_0::SimdSha256Hash2             0      0.00%     41.90% # Class of committed instruction
system.cpu1.op_class_0::SimdShaSigma2               0      0.00%     41.90% # Class of committed instruction
system.cpu1.op_class_0::SimdShaSigma3               0      0.00%     41.90% # Class of committed instruction
system.cpu1.op_class_0::SimdPredAlu                 0      0.00%     41.90% # Class of committed instruction
system.cpu1.op_class_0::MemRead                 42409      0.29%     42.19% # Class of committed instruction
system.cpu1.op_class_0::MemWrite               389289      2.68%     44.88% # Class of committed instruction
system.cpu1.op_class_0::FloatMemRead          1092474      7.53%     52.40% # Class of committed instruction
system.cpu1.op_class_0::FloatMemWrite         6905749     47.60%    100.00% # Class of committed instruction
system.cpu1.op_class_0::IprAccess                   0      0.00%    100.00% # Class of committed instruction
system.cpu1.op_class_0::InstPrefetch                0      0.00%    100.00% # Class of committed instruction
system.cpu1.op_class_0::total                14509368                       # Class of committed instruction
system.cpu1.tickCycles                       19972122                       # Number of cycles that the object actually ticked
system.cpu1.workload.numSyscalls                   40                       # Number of system calls
system.membus.snoop_filter.hit_multi_requests            0                       # Number of requests hitting in the snoop filter with multiple (>1) holders of the requested data.
system.membus.snoop_filter.hit_multi_snoops            0                       # Number of snoops hitting in the snoop filter with multiple (>1) holders of the requested data.
system.membus.snoop_filter.hit_single_requests      1508418                       # Number of requests hitting in the snoop filter with a single holder of the requested data.
system.membus.snoop_filter.hit_single_snoops            0                       # Number of snoops hitting in the snoop filter with a single holder of the requested data.
system.membus.snoop_filter.tot_requests       3017896                       # Total number of requests made to the snoop filter.
system.membus.snoop_filter.tot_snoops               0                       # Total number of snoops made to the snoop filter.
system.tol2bus.snoop_filter.hit_multi_requests            0                       # Number of requests hitting in the snoop filter with multiple (>1) holders of the requested data.
system.tol2bus.snoop_filter.hit_multi_snoops            0                       # Number of snoops hitting in the snoop filter with multiple (>1) holders of the requested data.
system.tol2bus.snoop_filter.hit_single_requests      1550697                       # Number of requests hitting in the snoop filter with a single holder of the requested data.
system.tol2bus.snoop_filter.hit_single_snoops          360                       # Number of snoops hitting in the snoop filter with a single holder of the requested data.
system.tol2bus.snoop_filter.tot_requests      3101460                       # Total number of requests made to the snoop filter.
system.tol2bus.snoop_filter.tot_snoops            360                       # Total number of snoops made to the snoop filter.
system.membus.trans_dist::ReadResp              10323                       # Transaction distribution
system.membus.trans_dist::WritebackDirty      1498370                       # Transaction distribution
system.membus.trans_dist::CleanEvict            10048                       # Transaction distribution
system.membus.trans_dist::ReadExReq           1499155                       # Transaction distribution
system.membus.trans_dist::ReadExResp          1499155                       # Transaction distribution
system.membus.trans_dist::ReadSharedReq         10323                       # Transaction distribution
system.membus.pkt_count_system.l2.mem_side::system.mem_ctrls.port      4527374                       # Packet count per connected master and slave (bytes)
system.membus.pkt_count_system.l2.mem_side::total      4527374                       # Packet count per connected master and slave (bytes)
system.membus.pkt_count::total                4527374                       # Packet count per connected master and slave (bytes)
system.membus.pkt_size_system.l2.mem_side::system.mem_ctrls.port    192502272                       # Cumulative packet size per connected master and slave (bytes)
system.membus.pkt_size_system.l2.mem_side::total    192502272                       # Cumulative packet size per connected master and slave (bytes)
system.membus.pkt_size::total               192502272                       # Cumulative packet size per connected master and slave (bytes)
system.membus.snoops                                0                       # Total snoops (count)
system.membus.snoopTraffic                          0                       # Total snoop traffic (bytes)
system.membus.snoop_fanout::samples           1509478                       # Request fanout histogram
system.membus.snoop_fanout::mean                    0                       # Request fanout histogram
system.membus.snoop_fanout::stdev                   0                       # Request fanout histogram
system.membus.snoop_fanout::underflows              0      0.00%      0.00% # Request fanout histogram
system.membus.snoop_fanout::0                 1509478    100.00%    100.00% # Request fanout histogram
system.membus.snoop_fanout::1                       0      0.00%    100.00% # Request fanout histogram
system.membus.snoop_fanout::overflows               0      0.00%    100.00% # Request fanout histogram
system.membus.snoop_fanout::min_value               0                       # Request fanout histogram
system.membus.snoop_fanout::max_value               0                       # Request fanout histogram
system.membus.snoop_fanout::total             1509478                       # Request fanout histogram
system.membus.reqLayer4.occupancy          9587220000                       # Layer occupancy (ticks)
system.membus.reqLayer4.utilization              16.2                       # Layer utilization (%)
system.membus.respLayer1.occupancy         7887217000                       # Layer occupancy (ticks)
system.membus.respLayer1.utilization             13.3                       # Layer utilization (%)
system.membus.power_state.pwrStateResidencyTicks::UNDEFINED  59171848500                       # Cumulative time (in ticks) in various power states
system.voltage_domain.voltage                       1                       # Voltage in Volts
system.clk_domain.clock                          1000                       # Clock period in ticks
system.cpu0.icache.demand_hits::.cpu0.inst      1987490                       # number of demand (read+write) hits
system.cpu0.icache.demand_hits::total         1987490                       # number of demand (read+write) hits
system.cpu0.icache.overall_hits::.cpu0.inst      1987490                       # number of overall hits
system.cpu0.icache.overall_hits::total        1987490                       # number of overall hits
system.cpu0.icache.demand_misses::.cpu0.inst         8891                       # number of demand (read+write) misses
system.cpu0.icache.demand_misses::total          8891                       # number of demand (read+write) misses
system.cpu0.icache.overall_misses::.cpu0.inst         8891                       # number of overall misses
system.cpu0.icache.overall_misses::total         8891                       # number of overall misses
system.cpu0.icache.demand_miss_latency::.cpu0.inst    230779500                       # number of demand (read+write) miss cycles
system.cpu0.icache.demand_miss_latency::total    230779500                       # number of demand (read+write) miss cycles
system.cpu0.icache.overall_miss_latency::.cpu0.inst    230779500                       # number of overall miss cycles
system.cpu0.icache.overall_miss_latency::total    230779500                       # number of overall miss cycles
system.cpu0.icache.demand_accesses::.cpu0.inst      1996381                       # number of demand (read+write) accesses
system.cpu0.icache.demand_accesses::total      1996381                       # number of demand (read+write) accesses
system.cpu0.icache.overall_accesses::.cpu0.inst      1996381                       # number of overall (read+write) accesses
system.cpu0.icache.overall_accesses::total      1996381                       # number of overall (read+write) accesses
system.cpu0.icache.demand_miss_rate::.cpu0.inst     0.004454                       # miss rate for demand accesses
system.cpu0.icache.demand_miss_rate::total     0.004454                       # miss rate for demand accesses
system.cpu0.icache.overall_miss_rate::.cpu0.inst     0.004454                       # miss rate for overall accesses
system.cpu0.icache.overall_miss_rate::total     0.004454                       # miss rate for overall accesses
system.cpu0.icache.demand_avg_miss_latency::.cpu0.inst 25956.529074                       # average overall miss latency
system.cpu0.icache.demand_avg_miss_latency::total 25956.529074                       # average overall miss latency
system.cpu0.icache.overall_avg_miss_latency::.cpu0.inst 25956.529074                       # average overall miss latency
system.cpu0.icache.overall_avg_miss_latency::total 25956.529074                       # average overall miss latency
system.cpu0.icache.blocked_cycles::no_mshrs            0                       # number of cycles access was blocked
system.cpu0.icache.blocked_cycles::no_targets            0                       # number of cycles access was blocked
system.cpu0.icache.blocked::no_mshrs                0                       # number of cycles access was blocked
system.cpu0.icache.blocked::no_targets              0                       # number of cycles access was blocked
system.cpu0.icache.avg_blocked_cycles::no_mshrs          nan                       # average number of cycles each access was blocked
system.cpu0.icache.avg_blocked_cycles::no_targets          nan                       # average number of cycles each access was blocked
system.cpu0.icache.writebacks::.writebacks         8875                       # number of writebacks
system.cpu0.icache.writebacks::total             8875                       # number of writebacks
system.cpu0.icache.demand_mshr_misses::.cpu0.inst         8891                       # number of demand (read+write) MSHR misses
system.cpu0.icache.demand_mshr_misses::total         8891                       # number of demand (read+write) MSHR misses
system.cpu0.icache.overall_mshr_misses::.cpu0.inst         8891                       # number of overall MSHR misses
system.cpu0.icache.overall_mshr_misses::total         8891                       # number of overall MSHR misses
system.cpu0.icache.demand_mshr_miss_latency::.cpu0.inst    221888500                       # number of demand (read+write) MSHR miss cycles
system.cpu0.icache.demand_mshr_miss_latency::total    221888500                       # number of demand (read+write) MSHR miss cycles
system.cpu0.icache.overall_mshr_miss_latency::.cpu0.inst    221888500                       # number of overall MSHR miss cycles
system.cpu0.icache.overall_mshr_miss_latency::total    221888500                       # number of overall MSHR miss cycles
system.cpu0.icache.demand_mshr_miss_rate::.cpu0.inst     0.004454                       # mshr miss rate for demand accesses
system.cpu0.icache.demand_mshr_miss_rate::total     0.004454                       # mshr miss rate for demand accesses
system.cpu0.icache.overall_mshr_miss_rate::.cpu0.inst     0.004454                       # mshr miss rate for overall accesses
system.cpu0.icache.overall_mshr_miss_rate::total     0.004454                       # mshr miss rate for overall accesses
system.cpu0.icache.demand_avg_mshr_miss_latency::.cpu0.inst 24956.529074                       # average overall mshr miss latency
system.cpu0.icache.demand_avg_mshr_miss_latency::total 24956.529074                       # average overall mshr miss latency
system.cpu0.icache.overall_avg_mshr_miss_latency::.cpu0.inst 24956.529074                       # average overall mshr miss latency
system.cpu0.icache.overall_avg_mshr_miss_latency::total 24956.529074                       # average overall mshr miss latency
system.cpu0.icache.replacements                  8875                       # number of replacements
system.cpu0.icache.ReadReq_hits::.cpu0.inst      1987490                       # number of ReadReq hits
system.cpu0.icache.ReadReq_hits::total        1987490                       # number of ReadReq hits
system.cpu0.icache.ReadReq_misses::.cpu0.inst         8891                       # number of ReadReq misses
system.cpu0.icache.ReadReq_misses::total         8891                       # number of ReadReq misses
system.cpu0.icache.ReadReq_miss_latency::.cpu0.inst    230779500                       # number of ReadReq miss cycles
system.cpu0.icache.ReadReq_miss_latency::total    230779500                       # number of ReadReq miss cycles
system.cpu0.icache.ReadReq_accesses::.cpu0.inst      1996381                       # number of ReadReq accesses(hits+misses)
system.cpu0.icache.ReadReq_accesses::total      1996381                       # number of ReadReq accesses(hits+misses)
system.cpu0.icache.ReadReq_miss_rate::.cpu0.inst     0.004454                       # miss rate for ReadReq accesses
system.cpu0.icache.ReadReq_miss_rate::total     0.004454                       # miss rate for ReadReq accesses
system.cpu0.icache.ReadReq_avg_miss_latency::.cpu0.inst 25956.529074                       # average ReadReq miss latency
system.cpu0.icache.ReadReq_avg_miss_latency::total 25956.529074                       # average ReadReq miss latency
system.cpu0.icache.ReadReq_mshr_misses::.cpu0.inst         8891                       # number of ReadReq MSHR misses
system.cpu0.icache.ReadReq_mshr_misses::total         8891                       # number of ReadReq MSHR misses
system.cpu0.icache.ReadReq_mshr_miss_latency::.cpu0.inst    221888500                       # number of ReadReq MSHR miss cycles
system.cpu0.icache.ReadReq_mshr_miss_latency::total    221888500                       # number of ReadReq MSHR miss cycles
system.cpu0.icache.ReadReq_mshr_miss_rate::.cpu0.inst     0.004454                       # mshr miss rate for ReadReq accesses
system.cpu0.icache.ReadReq_mshr_miss_rate::total     0.004454                       # mshr miss rate for ReadReq accesses
system.cpu0.icache.ReadReq_avg_mshr_miss_latency::.cpu0.inst 24956.529074                       # average ReadReq mshr miss latency
system.cpu0.icache.ReadReq_avg_mshr_miss_latency::total 24956.529074                       # average ReadReq mshr miss latency
system.cpu0.icache.power_state.pwrStateResidencyTicks::UNDEFINED  59171848500                       # Cumulative time (in ticks) in various power states
system.cpu0.icache.tags.tagsinuse           15.999769                       # Cycle average of tags in use
system.cpu0.icache.tags.total_refs            1996381                       # Total number of references to valid blocks.
system.cpu0.icache.tags.sampled_refs             8891                       # Sample count of references to valid blocks.
system.cpu0.icache.tags.avg_refs           224.539534                       # Average number of references to valid blocks.
system.cpu0.icache.tags.warmup_cycle            87500                       # Cycle when the warmup percentage was hit.
system.cpu0.icache.tags.occ_blocks::.cpu0.inst    15.999769                       # Average occupied blocks per requestor
system.cpu0.icache.tags.occ_percent::.cpu0.inst     0.999986                       # Average percentage of cache occupancy
system.cpu0.icache.tags.occ_percent::total     0.999986                       # Average percentage of cache occupancy
system.cpu0.icache.tags.occ_task_id_blocks::1024           16                       # Occupied blocks per task id
system.cpu0.icache.tags.age_task_id_blocks_1024::4           16                       # Occupied blocks per task id
system.cpu0.icache.tags.occ_task_id_percent::1024            1                       # Percentage of cache occupancy per task id
system.cpu0.icache.tags.tag_accesses         15979939                       # Number of tag accesses
system.cpu0.icache.tags.data_accesses        15979939                       # Number of data accesses
system.cpu0.icache.tags.power_state.pwrStateResidencyTicks::UNDEFINED  59171848500                       # Cumulative time (in ticks) in various power states
system.cpu0.dtb.walker.power_state.pwrStateResidencyTicks::UNDEFINED  59171848500                       # Cumulative time (in ticks) in various power states
system.cpu0.interrupts.clk_domain.clock          8000                       # Clock period in ticks
system.cpu0.itb_walker_cache.blocked_cycles::no_mshrs            0                       # number of cycles access was blocked
system.cpu0.itb_walker_cache.blocked_cycles::no_targets            0                       # number of cycles access was blocked
system.cpu0.itb_walker_cache.blocked::no_mshrs            0                       # number of cycles access was blocked
system.cpu0.itb_walker_cache.blocked::no_targets            0                       # number of cycles access was blocked
system.cpu0.itb_walker_cache.avg_blocked_cycles::no_mshrs          nan                       # average number of cycles each access was blocked
system.cpu0.itb_walker_cache.avg_blocked_cycles::no_targets          nan                       # average number of cycles each access was blocked
system.cpu0.itb_walker_cache.replacements            0                       # number of replacements
system.cpu0.itb_walker_cache.power_state.pwrStateResidencyTicks::UNDEFINED  59171848500                       # Cumulative time (in ticks) in various power states
system.cpu0.itb_walker_cache.tags.tagsinuse            0                       # Cycle average of tags in use
system.cpu0.itb_walker_cache.tags.total_refs            0                       # Total number of references to valid blocks.
system.cpu0.itb_walker_cache.tags.sampled_refs            0                       # Sample count of references to valid blocks.
system.cpu0.itb_walker_cache.tags.avg_refs          nan                       # Average number of references to valid blocks.
system.cpu0.itb_walker_cache.tags.warmup_cycle            0                       # Cycle when the warmup percentage was hit.
system.cpu0.itb_walker_cache.tags.tag_accesses            0                       # Number of tag accesses
system.cpu0.itb_walker_cache.tags.data_accesses            0                       # Number of data accesses
system.cpu0.itb_walker_cache.tags.power_state.pwrStateResidencyTicks::UNDEFINED  59171848500                       # Cumulative time (in ticks) in various power states
system.cpu0.dtb_walker_cache.blocked_cycles::no_mshrs            0                       # number of cycles access was blocked
system.cpu0.dtb_walker_cache.blocked_cycles::no_targets            0                       # number of cycles access was blocked
system.cpu0.dtb_walker_cache.blocked::no_mshrs            0                       # number of cycles access was blocked
system.cpu0.dtb_walker_cache.blocked::no_targets            0                       # number of cycles access was blocked
system.cpu0.dtb_walker_cache.avg_blocked_cycles::no_mshrs          nan                       # average number of cycles each access was blocked
system.cpu0.dtb_walker_cache.avg_blocked_cycles::no_targets          nan                       # average number of cycles each access was blocked
system.cpu0.dtb_walker_cache.replacements            0                       # number of replacements
system.cpu0.dtb_walker_cache.power_state.pwrStateResidencyTicks::UNDEFINED  59171848500                       # Cumulative time (in ticks) in various power states
system.cpu0.dtb_walker_cache.tags.tagsinuse            0                       # Cycle average of tags in use
system.cpu0.dtb_walker_cache.tags.total_refs            0                       # Total number of references to valid blocks.
system.cpu0.dtb_walker_cache.tags.sampled_refs            0                       # Sample count of references to valid blocks.
system.cpu0.dtb_walker_cache.tags.avg_refs          nan                       # Average number of references to valid blocks.
system.cpu0.dtb_walker_cache.tags.warmup_cycle            0                       # Cycle when the warmup percentage was hit.
system.cpu0.dtb_walker_cache.tags.tag_accesses            0                       # Number of tag accesses
system.cpu0.dtb_walker_cache.tags.data_accesses            0                       # Number of data accesses
system.cpu0.dtb_walker_cache.tags.power_state.pwrStateResidencyTicks::UNDEFINED  59171848500                       # Cumulative time (in ticks) in various power states
system.cpu0.dcache.demand_hits::.cpu0.data      4418092                       # number of demand (read+write) hits
system.cpu0.dcache.demand_hits::total         4418092                       # number of demand (read+write) hits
system.cpu0.dcache.overall_hits::.cpu0.data      4418092                       # number of overall hits
system.cpu0.dcache.overall_hits::total        4418092                       # number of overall hits
system.cpu0.dcache.demand_misses::.cpu0.data      1203888                       # number of demand (read+write) misses
system.cpu0.dcache.demand_misses::total       1203888                       # number of demand (read+write) misses
system.cpu0.dcache.overall_misses::.cpu0.data      1203888                       # number of overall misses
system.cpu0.dcache.overall_misses::total      1203888                       # number of overall misses
system.cpu0.dcache.demand_miss_latency::.cpu0.data 106437256000                       # number of demand (read+write) miss cycles
system.cpu0.dcache.demand_miss_latency::total 106437256000                       # number of demand (read+write) miss cycles
system.cpu0.dcache.overall_miss_latency::.cpu0.data 106437256000                       # number of overall miss cycles
system.cpu0.dcache.overall_miss_latency::total 106437256000                       # number of overall miss cycles
system.cpu0.dcache.demand_accesses::.cpu0.data      5621980                       # number of demand (read+write) accesses
system.cpu0.dcache.demand_accesses::total      5621980                       # number of demand (read+write) accesses
system.cpu0.dcache.overall_accesses::.cpu0.data      5621980                       # number of overall (read+write) accesses
system.cpu0.dcache.overall_accesses::total      5621980                       # number of overall (read+write) accesses
system.cpu0.dcache.demand_miss_rate::.cpu0.data     0.214140                       # miss rate for demand accesses
system.cpu0.dcache.demand_miss_rate::total     0.214140                       # miss rate for demand accesses
system.cpu0.dcache.overall_miss_rate::.cpu0.data     0.214140                       # miss rate for overall accesses
system.cpu0.dcache.overall_miss_rate::total     0.214140                       # miss rate for overall accesses
system.cpu0.dcache.demand_avg_miss_latency::.cpu0.data 88411.260848                       # average overall miss latency
system.cpu0.dcache.demand_avg_miss_latency::total 88411.260848                       # average overall miss latency
system.cpu0.dcache.overall_avg_miss_latency::.cpu0.data 88411.260848                       # average overall miss latency
system.cpu0.dcache.overall_avg_miss_latency::total 88411.260848                       # average overall miss latency
system.cpu0.dcache.blocked_cycles::no_mshrs            0                       # number of cycles access was blocked
system.cpu0.dcache.blocked_cycles::no_targets            0                       # number of cycles access was blocked
system.cpu0.dcache.blocked::no_mshrs                0                       # number of cycles access was blocked
system.cpu0.dcache.blocked::no_targets              0                       # number of cycles access was blocked
system.cpu0.dcache.avg_blocked_cycles::no_mshrs          nan                       # average number of cycles each access was blocked
system.cpu0.dcache.avg_blocked_cycles::no_targets          nan                       # average number of cycles each access was blocked
system.cpu0.dcache.writebacks::.writebacks       597337                       # number of writebacks
system.cpu0.dcache.writebacks::total           597337                       # number of writebacks
system.cpu0.dcache.demand_mshr_hits::.cpu0.data       592711                       # number of demand (read+write) MSHR hits
system.cpu0.dcache.demand_mshr_hits::total       592711                       # number of demand (read+write) MSHR hits
system.cpu0.dcache.overall_mshr_hits::.cpu0.data       592711                       # number of overall MSHR hits
system.cpu0.dcache.overall_mshr_hits::total       592711                       # number of overall MSHR hits
system.cpu0.dcache.demand_mshr_misses::.cpu0.data       611177                       # number of demand (read+write) MSHR misses
system.cpu0.dcache.demand_mshr_misses::total       611177                       # number of demand (read+write) MSHR misses
system.cpu0.dcache.overall_mshr_misses::.cpu0.data       611177                       # number of overall MSHR misses
system.cpu0.dcache.overall_mshr_misses::total       611177                       # number of overall MSHR misses
system.cpu0.dcache.demand_mshr_miss_latency::.cpu0.data  52804531000                       # number of demand (read+write) MSHR miss cycles
system.cpu0.dcache.demand_mshr_miss_latency::total  52804531000                       # number of demand (read+write) MSHR miss cycles
system.cpu0.dcache.overall_mshr_miss_latency::.cpu0.data  52804531000                       # number of overall MSHR miss cycles
system.cpu0.dcache.overall_mshr_miss_latency::total  52804531000                       # number of overall MSHR miss cycles
system.cpu0.dcache.demand_mshr_miss_rate::.cpu0.data     0.108712                       # mshr miss rate for demand accesses
system.cpu0.dcache.demand_mshr_miss_rate::total     0.108712                       # mshr miss rate for demand accesses
system.cpu0.dcache.overall_mshr_miss_rate::.cpu0.data     0.108712                       # mshr miss rate for overall accesses
system.cpu0.dcache.overall_mshr_miss_rate::total     0.108712                       # mshr miss rate for overall accesses
system.cpu0.dcache.demand_avg_mshr_miss_latency::.cpu0.data 86398.099078                       # average overall mshr miss latency
system.cpu0.dcache.demand_avg_mshr_miss_latency::total 86398.099078                       # average overall mshr miss latency
system.cpu0.dcache.overall_avg_mshr_miss_latency::.cpu0.data 86398.099078                       # average overall mshr miss latency
system.cpu0.dcache.overall_avg_mshr_miss_latency::total 86398.099078                       # average overall mshr miss latency
system.cpu0.dcache.replacements                611160                       # number of replacements
system.cpu0.dcache.ReadReq_hits::.cpu0.data       777798                       # number of ReadReq hits
system.cpu0.dcache.ReadReq_hits::total         777798                       # number of ReadReq hits
system.cpu0.dcache.ReadReq_misses::.cpu0.data        16404                       # number of ReadReq misses
system.cpu0.dcache.ReadReq_misses::total        16404                       # number of ReadReq misses
system.cpu0.dcache.ReadReq_miss_latency::.cpu0.data    424050500                       # number of ReadReq miss cycles
system.cpu0.dcache.ReadReq_miss_latency::total    424050500                       # number of ReadReq miss cycles
system.cpu0.dcache.ReadReq_accesses::.cpu0.data       794202                       # number of ReadReq accesses(hits+misses)
system.cpu0.dcache.ReadReq_accesses::total       794202                       # number of ReadReq accesses(hits+misses)
system.cpu0.dcache.ReadReq_miss_rate::.cpu0.data     0.020655                       # miss rate for ReadReq accesses
system.cpu0.dcache.ReadReq_miss_rate::total     0.020655                       # miss rate for ReadReq accesses
system.cpu0.dcache.ReadReq_avg_miss_latency::.cpu0.data 25850.432821                       # average ReadReq miss latency
system.cpu0.dcache.ReadReq_avg_miss_latency::total 25850.432821                       # average ReadReq miss latency
system.cpu0.dcache.ReadReq_mshr_hits::.cpu0.data          304                       # number of ReadReq MSHR hits
system.cpu0.dcache.ReadReq_mshr_hits::total          304                       # number of ReadReq MSHR hits
system.cpu0.dcache.ReadReq_mshr_misses::.cpu0.data        16100                       # number of ReadReq MSHR misses
system.cpu0.dcache.ReadReq_mshr_misses::total        16100                       # number of ReadReq MSHR misses
system.cpu0.dcache.ReadReq_mshr_miss_latency::.cpu0.data    395105000                       # number of ReadReq MSHR miss cycles
system.cpu0.dcache.ReadReq_mshr_miss_latency::total    395105000                       # number of ReadReq MSHR miss cycles
system.cpu0.dcache.ReadReq_mshr_miss_rate::.cpu0.data     0.020272                       # mshr miss rate for ReadReq accesses
system.cpu0.dcache.ReadReq_mshr_miss_rate::total     0.020272                       # mshr miss rate for ReadReq accesses
system.cpu0.dcache.ReadReq_avg_mshr_miss_latency::.cpu0.data 24540.683230                       # average ReadReq mshr miss latency
system.cpu0.dcache.ReadReq_avg_mshr_miss_latency::total 24540.683230                       # average ReadReq mshr miss latency
system.cpu0.dcache.WriteReq_hits::.cpu0.data      3640294                       # number of WriteReq hits
system.cpu0.dcache.WriteReq_hits::total       3640294                       # number of WriteReq hits
system.cpu0.dcache.WriteReq_misses::.cpu0.data      1187484                       # number of WriteReq misses
system.cpu0.dcache.WriteReq_misses::total      1187484                       # number of WriteReq misses
system.cpu0.dcache.WriteReq_miss_latency::.cpu0.data 106013205500                       # number of WriteReq miss cycles
system.cpu0.dcache.WriteReq_miss_latency::total 106013205500                       # number of WriteReq miss cycles
system.cpu0.dcache.WriteReq_accesses::.cpu0.data      4827778                       # number of WriteReq accesses(hits+misses)
system.cpu0.dcache.WriteReq_accesses::total      4827778                       # number of WriteReq accesses(hits+misses)
system.cpu0.dcache.WriteReq_miss_rate::.cpu0.data     0.245969                       # miss rate for WriteReq accesses
system.cpu0.dcache.WriteReq_miss_rate::total     0.245969                       # miss rate for WriteReq accesses
system.cpu0.dcache.WriteReq_avg_miss_latency::.cpu0.data 89275.481185                       # average WriteReq miss latency
system.cpu0.dcache.WriteReq_avg_miss_latency::total 89275.481185                       # average WriteReq miss latency
system.cpu0.dcache.WriteReq_mshr_hits::.cpu0.data       592407                       # number of WriteReq MSHR hits
system.cpu0.dcache.WriteReq_mshr_hits::total       592407                       # number of WriteReq MSHR hits
system.cpu0.dcache.WriteReq_mshr_misses::.cpu0.data       595077                       # number of WriteReq MSHR misses
system.cpu0.dcache.WriteReq_mshr_misses::total       595077                       # number of WriteReq MSHR misses
system.cpu0.dcache.WriteReq_mshr_miss_latency::.cpu0.data  52409426000                       # number of WriteReq MSHR miss cycles
system.cpu0.dcache.WriteReq_mshr_miss_latency::total  52409426000                       # number of WriteReq MSHR miss cycles
system.cpu0.dcache.WriteReq_mshr_miss_rate::.cpu0.data     0.123261                       # mshr miss rate for WriteReq accesses
system.cpu0.dcache.WriteReq_mshr_miss_rate::total     0.123261                       # mshr miss rate for WriteReq accesses
system.cpu0.dcache.WriteReq_avg_mshr_miss_latency::.cpu0.data 88071.671397                       # average WriteReq mshr miss latency
system.cpu0.dcache.WriteReq_avg_mshr_miss_latency::total 88071.671397                       # average WriteReq mshr miss latency
system.cpu0.dcache.power_state.pwrStateResidencyTicks::UNDEFINED  59171848500                       # Cumulative time (in ticks) in various power states
system.cpu0.dcache.tags.tagsinuse           15.999784                       # Cycle average of tags in use
system.cpu0.dcache.tags.total_refs            5029268                       # Total number of references to valid blocks.
system.cpu0.dcache.tags.sampled_refs           611176                       # Sample count of references to valid blocks.
system.cpu0.dcache.tags.avg_refs             8.228838                       # Average number of references to valid blocks.
system.cpu0.dcache.tags.warmup_cycle           178500                       # Cycle when the warmup percentage was hit.
system.cpu0.dcache.tags.occ_blocks::.cpu0.data    15.999784                       # Average occupied blocks per requestor
system.cpu0.dcache.tags.occ_percent::.cpu0.data     0.999986                       # Average percentage of cache occupancy
system.cpu0.dcache.tags.occ_percent::total     0.999986                       # Average percentage of cache occupancy
system.cpu0.dcache.tags.occ_task_id_blocks::1024           16                       # Occupied blocks per task id
system.cpu0.dcache.tags.age_task_id_blocks_1024::0           15                       # Occupied blocks per task id
system.cpu0.dcache.tags.age_task_id_blocks_1024::4            1                       # Occupied blocks per task id
system.cpu0.dcache.tags.occ_task_id_percent::1024            1                       # Percentage of cache occupancy per task id
system.cpu0.dcache.tags.tag_accesses         45587016                       # Number of tag accesses
system.cpu0.dcache.tags.data_accesses        45587016                       # Number of data accesses
system.cpu0.dcache.tags.power_state.pwrStateResidencyTicks::UNDEFINED  59171848500                       # Cumulative time (in ticks) in various power states
system.cpu0.power_state.pwrStateResidencyTicks::ON  59171848500                       # Cumulative time (in ticks) in various power states
system.cpu0.itb.walker.power_state.pwrStateResidencyTicks::UNDEFINED  59171848500                       # Cumulative time (in ticks) in various power states
system.cpu1.icache.demand_hits::.cpu1.inst      2302151                       # number of demand (read+write) hits
system.cpu1.icache.demand_hits::total         2302151                       # number of demand (read+write) hits
system.cpu1.icache.overall_hits::.cpu1.inst      2302151                       # number of overall hits
system.cpu1.icache.overall_hits::total        2302151                       # number of overall hits
system.cpu1.icache.demand_misses::.cpu1.inst        11112                       # number of demand (read+write) misses
system.cpu1.icache.demand_misses::total         11112                       # number of demand (read+write) misses
system.cpu1.icache.overall_misses::.cpu1.inst        11112                       # number of overall misses
system.cpu1.icache.overall_misses::total        11112                       # number of overall misses
system.cpu1.icache.demand_miss_latency::.cpu1.inst    332233000                       # number of demand (read+write) miss cycles
system.cpu1.icache.demand_miss_latency::total    332233000                       # number of demand (read+write) miss cycles
system.cpu1.icache.overall_miss_latency::.cpu1.inst    332233000                       # number of overall miss cycles
system.cpu1.icache.overall_miss_latency::total    332233000                       # number of overall miss cycles
system.cpu1.icache.demand_accesses::.cpu1.inst      2313263                       # number of demand (read+write) accesses
system.cpu1.icache.demand_accesses::total      2313263                       # number of demand (read+write) accesses
system.cpu1.icache.overall_accesses::.cpu1.inst      2313263                       # number of overall (read+write) accesses
system.cpu1.icache.overall_accesses::total      2313263                       # number of overall (read+write) accesses
system.cpu1.icache.demand_miss_rate::.cpu1.inst     0.004804                       # miss rate for demand accesses
system.cpu1.icache.demand_miss_rate::total     0.004804                       # miss rate for demand accesses
system.cpu1.icache.overall_miss_rate::.cpu1.inst     0.004804                       # miss rate for overall accesses
system.cpu1.icache.overall_miss_rate::total     0.004804                       # miss rate for overall accesses
system.cpu1.icache.demand_avg_miss_latency::.cpu1.inst 29898.578114                       # average overall miss latency
system.cpu1.icache.demand_avg_miss_latency::total 29898.578114                       # average overall miss latency
system.cpu1.icache.overall_avg_miss_latency::.cpu1.inst 29898.578114                       # average overall miss latency
system.cpu1.icache.overall_avg_miss_latency::total 29898.578114                       # average overall miss latency
system.cpu1.icache.blocked_cycles::no_mshrs            0                       # number of cycles access was blocked
system.cpu1.icache.blocked_cycles::no_targets            0                       # number of cycles access was blocked
system.cpu1.icache.blocked::no_mshrs                0                       # number of cycles access was blocked
system.cpu1.icache.blocked::no_targets              0                       # number of cycles access was blocked
system.cpu1.icache.avg_blocked_cycles::no_mshrs          nan                       # average number of cycles each access was blocked
system.cpu1.icache.avg_blocked_cycles::no_targets          nan                       # average number of cycles each access was blocked
system.cpu1.icache.writebacks::.writebacks        11096                       # number of writebacks
system.cpu1.icache.writebacks::total            11096                       # number of writebacks
system.cpu1.icache.demand_mshr_misses::.cpu1.inst        11112                       # number of demand (read+write) MSHR misses
system.cpu1.icache.demand_mshr_misses::total        11112                       # number of demand (read+write) MSHR misses
system.cpu1.icache.overall_mshr_misses::.cpu1.inst        11112                       # number of overall MSHR misses
system.cpu1.icache.overall_mshr_misses::total        11112                       # number of overall MSHR misses
system.cpu1.icache.demand_mshr_miss_latency::.cpu1.inst    321121000                       # number of demand (read+write) MSHR miss cycles
system.cpu1.icache.demand_mshr_miss_latency::total    321121000                       # number of demand (read+write) MSHR miss cycles
system.cpu1.icache.overall_mshr_miss_latency::.cpu1.inst    321121000                       # number of overall MSHR miss cycles
system.cpu1.icache.overall_mshr_miss_latency::total    321121000                       # number of overall MSHR miss cycles
system.cpu1.icache.demand_mshr_miss_rate::.cpu1.inst     0.004804                       # mshr miss rate for demand accesses
system.cpu1.icache.demand_mshr_miss_rate::total     0.004804                       # mshr miss rate for demand accesses
system.cpu1.icache.overall_mshr_miss_rate::.cpu1.inst     0.004804                       # mshr miss rate for overall accesses
system.cpu1.icache.overall_mshr_miss_rate::total     0.004804                       # mshr miss rate for overall accesses
system.cpu1.icache.demand_avg_mshr_miss_latency::.cpu1.inst 28898.578114                       # average overall mshr miss latency
system.cpu1.icache.demand_avg_mshr_miss_latency::total 28898.578114                       # average overall mshr miss latency
system.cpu1.icache.overall_avg_mshr_miss_latency::.cpu1.inst 28898.578114                       # average overall mshr miss latency
system.cpu1.icache.overall_avg_mshr_miss_latency::total 28898.578114                       # average overall mshr miss latency
system.cpu1.icache.replacements                 11096                       # number of replacements
system.cpu1.icache.ReadReq_hits::.cpu1.inst      2302151                       # number of ReadReq hits
system.cpu1.icache.ReadReq_hits::total        2302151                       # number of ReadReq hits
system.cpu1.icache.ReadReq_misses::.cpu1.inst        11112                       # number of ReadReq misses
system.cpu1.icache.ReadReq_misses::total        11112                       # number of ReadReq misses
system.cpu1.icache.ReadReq_miss_latency::.cpu1.inst    332233000                       # number of ReadReq miss cycles
system.cpu1.icache.ReadReq_miss_latency::total    332233000                       # number of ReadReq miss cycles
system.cpu1.icache.ReadReq_accesses::.cpu1.inst      2313263                       # number of ReadReq accesses(hits+misses)
system.cpu1.icache.ReadReq_accesses::total      2313263                       # number of ReadReq accesses(hits+misses)
system.cpu1.icache.ReadReq_miss_rate::.cpu1.inst     0.004804                       # miss rate for ReadReq accesses
system.cpu1.icache.ReadReq_miss_rate::total     0.004804                       # miss rate for ReadReq accesses
system.cpu1.icache.ReadReq_avg_miss_latency::.cpu1.inst 29898.578114                       # average ReadReq miss latency
system.cpu1.icache.ReadReq_avg_miss_latency::total 29898.578114                       # average ReadReq miss latency
system.cpu1.icache.ReadReq_mshr_misses::.cpu1.inst        11112                       # number of ReadReq MSHR misses
system.cpu1.icache.ReadReq_mshr_misses::total        11112                       # number of ReadReq MSHR misses
system.cpu1.icache.ReadReq_mshr_miss_latency::.cpu1.inst    321121000                       # number of ReadReq MSHR miss cycles
system.cpu1.icache.ReadReq_mshr_miss_latency::total    321121000                       # number of ReadReq MSHR miss cycles
system.cpu1.icache.ReadReq_mshr_miss_rate::.cpu1.inst     0.004804                       # mshr miss rate for ReadReq accesses
system.cpu1.icache.ReadReq_mshr_miss_rate::total     0.004804                       # mshr miss rate for ReadReq accesses
system.cpu1.icache.ReadReq_avg_mshr_miss_latency::.cpu1.inst 28898.578114                       # average ReadReq mshr miss latency
system.cpu1.icache.ReadReq_avg_mshr_miss_latency::total 28898.578114                       # average ReadReq mshr miss latency
system.cpu1.icache.power_state.pwrStateResidencyTicks::UNDEFINED  59171848500                       # Cumulative time (in ticks) in various power states
system.cpu1.icache.tags.tagsinuse           15.999759                       # Cycle average of tags in use
system.cpu1.icache.tags.total_refs            2313263                       # Total number of references to valid blocks.
system.cpu1.icache.tags.sampled_refs            11112                       # Sample count of references to valid blocks.
system.cpu1.icache.tags.avg_refs           208.177016                       # Average number of references to valid blocks.
system.cpu1.icache.tags.warmup_cycle            94500                       # Cycle when the warmup percentage was hit.
system.cpu1.icache.tags.occ_blocks::.cpu1.inst    15.999759                       # Average occupied blocks per requestor
system.cpu1.icache.tags.occ_percent::.cpu1.inst     0.999985                       # Average percentage of cache occupancy
system.cpu1.icache.tags.occ_percent::total     0.999985                       # Average percentage of cache occupancy
system.cpu1.icache.tags.occ_task_id_blocks::1024           16                       # Occupied blocks per task id
system.cpu1.icache.tags.age_task_id_blocks_1024::4           16                       # Occupied blocks per task id
system.cpu1.icache.tags.occ_task_id_percent::1024            1                       # Percentage of cache occupancy per task id
system.cpu1.icache.tags.tag_accesses         18517216                       # Number of tag accesses
system.cpu1.icache.tags.data_accesses        18517216                       # Number of data accesses
system.cpu1.icache.tags.power_state.pwrStateResidencyTicks::UNDEFINED  59171848500                       # Cumulative time (in ticks) in various power states
system.cpu1.dtb.walker.power_state.pwrStateResidencyTicks::UNDEFINED  59171848500                       # Cumulative time (in ticks) in various power states
system.cpu1.interrupts.clk_domain.clock          8000                       # Clock period in ticks
system.cpu1.itb_walker_cache.blocked_cycles::no_mshrs            0                       # number of cycles access was blocked
system.cpu1.itb_walker_cache.blocked_cycles::no_targets            0                       # number of cycles access was blocked
system.cpu1.itb_walker_cache.blocked::no_mshrs            0                       # number of cycles access was blocked
system.cpu1.itb_walker_cache.blocked::no_targets            0                       # number of cycles access was blocked
system.cpu1.itb_walker_cache.avg_blocked_cycles::no_mshrs          nan                       # average number of cycles each access was blocked
system.cpu1.itb_walker_cache.avg_blocked_cycles::no_targets          nan                       # average number of cycles each access was blocked
system.cpu1.itb_walker_cache.replacements            0                       # number of replacements
system.cpu1.itb_walker_cache.power_state.pwrStateResidencyTicks::UNDEFINED  59171848500                       # Cumulative time (in ticks) in various power states
system.cpu1.itb_walker_cache.tags.tagsinuse            0                       # Cycle average of tags in use
system.cpu1.itb_walker_cache.tags.total_refs            0                       # Total number of references to valid blocks.
system.cpu1.itb_walker_cache.tags.sampled_refs            0                       # Sample count of references to valid blocks.
system.cpu1.itb_walker_cache.tags.avg_refs          nan                       # Average number of references to valid blocks.
system.cpu1.itb_walker_cache.tags.warmup_cycle            0                       # Cycle when the warmup percentage was hit.
system.cpu1.itb_walker_cache.tags.tag_accesses            0                       # Number of tag accesses
system.cpu1.itb_walker_cache.tags.data_accesses            0                       # Number of data accesses
system.cpu1.itb_walker_cache.tags.power_state.pwrStateResidencyTicks::UNDEFINED  59171848500                       # Cumulative time (in ticks) in various power states
system.cpu1.dtb_walker_cache.blocked_cycles::no_mshrs            0                       # number of cycles access was blocked
system.cpu1.dtb_walker_cache.blocked_cycles::no_targets            0                       # number of cycles access was blocked
system.cpu1.dtb_walker_cache.blocked::no_mshrs            0                       # number of cycles access was blocked
system.cpu1.dtb_walker_cache.blocked::no_targets            0                       # number of cycles access was blocked
system.cpu1.dtb_walker_cache.avg_blocked_cycles::no_mshrs          nan                       # average number of cycles each access was blocked
system.cpu1.dtb_walker_cache.avg_blocked_cycles::no_targets          nan                       # average number of cycles each access was blocked
system.cpu1.dtb_walker_cache.replacements            0                       # number of replacements
system.cpu1.dtb_walker_cache.power_state.pwrStateResidencyTicks::UNDEFINED  59171848500                       # Cumulative time (in ticks) in various power states
system.cpu1.dtb_walker_cache.tags.tagsinuse            0                       # Cycle average of tags in use
system.cpu1.dtb_walker_cache.tags.total_refs            0                       # Total number of references to valid blocks.
system.cpu1.dtb_walker_cache.tags.sampled_refs            0                       # Sample count of references to valid blocks.
system.cpu1.dtb_walker_cache.tags.avg_refs          nan                       # Average number of references to valid blocks.
system.cpu1.dtb_walker_cache.tags.warmup_cycle            0                       # Cycle when the warmup percentage was hit.
system.cpu1.dtb_walker_cache.tags.tag_accesses            0                       # Number of tag accesses
system.cpu1.dtb_walker_cache.tags.data_accesses            0                       # Number of data accesses
system.cpu1.dtb_walker_cache.tags.power_state.pwrStateResidencyTicks::UNDEFINED  59171848500                       # Cumulative time (in ticks) in various power states
system.cpu1.dcache.demand_hits::.cpu1.data      7320241                       # number of demand (read+write) hits
system.cpu1.dcache.demand_hits::total         7320241                       # number of demand (read+write) hits
system.cpu1.dcache.overall_hits::.cpu1.data      7320241                       # number of overall hits
system.cpu1.dcache.overall_hits::total        7320241                       # number of overall hits
system.cpu1.dcache.demand_misses::.cpu1.data      1465602                       # number of demand (read+write) misses
system.cpu1.dcache.demand_misses::total       1465602                       # number of demand (read+write) misses
system.cpu1.dcache.overall_misses::.cpu1.data      1465602                       # number of overall misses
system.cpu1.dcache.overall_misses::total      1465602                       # number of overall misses
system.cpu1.dcache.demand_miss_latency::.cpu1.data 101899847500                       # number of demand (read+write) miss cycles
system.cpu1.dcache.demand_miss_latency::total 101899847500                       # number of demand (read+write) miss cycles
system.cpu1.dcache.overall_miss_latency::.cpu1.data 101899847500                       # number of overall miss cycles
system.cpu1.dcache.overall_miss_latency::total 101899847500                       # number of overall miss cycles
system.cpu1.dcache.demand_accesses::.cpu1.data      8785843                       # number of demand (read+write) accesses
system.cpu1.dcache.demand_accesses::total      8785843                       # number of demand (read+write) accesses
system.cpu1.dcache.overall_accesses::.cpu1.data      8785843                       # number of overall (read+write) accesses
system.cpu1.dcache.overall_accesses::total      8785843                       # number of overall (read+write) accesses
system.cpu1.dcache.demand_miss_rate::.cpu1.data     0.166814                       # miss rate for demand accesses
system.cpu1.dcache.demand_miss_rate::total     0.166814                       # miss rate for demand accesses
system.cpu1.dcache.overall_miss_rate::.cpu1.data     0.166814                       # miss rate for overall accesses
system.cpu1.dcache.overall_miss_rate::total     0.166814                       # miss rate for overall accesses
system.cpu1.dcache.demand_avg_miss_latency::.cpu1.data 69527.639496                       # average overall miss latency
system.cpu1.dcache.demand_avg_miss_latency::total 69527.639496                       # average overall miss latency
system.cpu1.dcache.overall_avg_miss_latency::.cpu1.data 69527.639496                       # average overall miss latency
system.cpu1.dcache.overall_avg_miss_latency::total 69527.639496                       # average overall miss latency
system.cpu1.dcache.blocked_cycles::no_mshrs            0                       # number of cycles access was blocked
system.cpu1.dcache.blocked_cycles::no_targets            0                       # number of cycles access was blocked
system.cpu1.dcache.blocked::no_mshrs                0                       # number of cycles access was blocked
system.cpu1.dcache.blocked::no_targets              0                       # number of cycles access was blocked
system.cpu1.dcache.avg_blocked_cycles::no_mshrs          nan                       # average number of cycles each access was blocked
system.cpu1.dcache.avg_blocked_cycles::no_targets          nan                       # average number of cycles each access was blocked
system.cpu1.dcache.writebacks::.writebacks       912105                       # number of writebacks
system.cpu1.dcache.writebacks::total           912105                       # number of writebacks
system.cpu1.dcache.demand_mshr_hits::.cpu1.data       546019                       # number of demand (read+write) MSHR hits
system.cpu1.dcache.demand_mshr_hits::total       546019                       # number of demand (read+write) MSHR hits
system.cpu1.dcache.overall_mshr_hits::.cpu1.data       546019                       # number of overall MSHR hits
system.cpu1.dcache.overall_mshr_hits::total       546019                       # number of overall MSHR hits
system.cpu1.dcache.demand_mshr_misses::.cpu1.data       919583                       # number of demand (read+write) MSHR misses
system.cpu1.dcache.demand_mshr_misses::total       919583                       # number of demand (read+write) MSHR misses
system.cpu1.dcache.overall_mshr_misses::.cpu1.data       919583                       # number of overall MSHR misses
system.cpu1.dcache.overall_mshr_misses::total       919583                       # number of overall MSHR misses
system.cpu1.dcache.demand_mshr_miss_latency::.cpu1.data  81079017500                       # number of demand (read+write) MSHR miss cycles
system.cpu1.dcache.demand_mshr_miss_latency::total  81079017500                       # number of demand (read+write) MSHR miss cycles
system.cpu1.dcache.overall_mshr_miss_latency::.cpu1.data  81079017500                       # number of overall MSHR miss cycles
system.cpu1.dcache.overall_mshr_miss_latency::total  81079017500                       # number of overall MSHR miss cycles
system.cpu1.dcache.demand_mshr_miss_rate::.cpu1.data     0.104666                       # mshr miss rate for demand accesses
system.cpu1.dcache.demand_mshr_miss_rate::total     0.104666                       # mshr miss rate for demand accesses
system.cpu1.dcache.overall_mshr_miss_rate::.cpu1.data     0.104666                       # mshr miss rate for overall accesses
system.cpu1.dcache.overall_mshr_miss_rate::total     0.104666                       # mshr miss rate for overall accesses
system.cpu1.dcache.demand_avg_mshr_miss_latency::.cpu1.data 88169.330555                       # average overall mshr miss latency
system.cpu1.dcache.demand_avg_mshr_miss_latency::total 88169.330555                       # average overall mshr miss latency
system.cpu1.dcache.overall_avg_mshr_miss_latency::.cpu1.data 88169.330555                       # average overall mshr miss latency
system.cpu1.dcache.overall_avg_mshr_miss_latency::total 88169.330555                       # average overall mshr miss latency
system.cpu1.dcache.replacements                919566                       # number of replacements
system.cpu1.dcache.ReadReq_hits::.cpu1.data      1495633                       # number of ReadReq hits
system.cpu1.dcache.ReadReq_hits::total        1495633                       # number of ReadReq hits
system.cpu1.dcache.ReadReq_misses::.cpu1.data         9378                       # number of ReadReq misses
system.cpu1.dcache.ReadReq_misses::total         9378                       # number of ReadReq misses
system.cpu1.dcache.ReadReq_miss_latency::.cpu1.data    393801000                       # number of ReadReq miss cycles
system.cpu1.dcache.ReadReq_miss_latency::total    393801000                       # number of ReadReq miss cycles
system.cpu1.dcache.ReadReq_accesses::.cpu1.data      1505011                       # number of ReadReq accesses(hits+misses)
system.cpu1.dcache.ReadReq_accesses::total      1505011                       # number of ReadReq accesses(hits+misses)
system.cpu1.dcache.ReadReq_miss_rate::.cpu1.data     0.006231                       # miss rate for ReadReq accesses
system.cpu1.dcache.ReadReq_miss_rate::total     0.006231                       # miss rate for ReadReq accesses
system.cpu1.dcache.ReadReq_avg_miss_latency::.cpu1.data 41992.002559                       # average ReadReq miss latency
system.cpu1.dcache.ReadReq_avg_miss_latency::total 41992.002559                       # average ReadReq miss latency
system.cpu1.dcache.ReadReq_mshr_hits::.cpu1.data          335                       # number of ReadReq MSHR hits
system.cpu1.dcache.ReadReq_mshr_hits::total          335                       # number of ReadReq MSHR hits
system.cpu1.dcache.ReadReq_mshr_misses::.cpu1.data         9043                       # number of ReadReq MSHR misses
system.cpu1.dcache.ReadReq_mshr_misses::total         9043                       # number of ReadReq MSHR misses
system.cpu1.dcache.ReadReq_mshr_miss_latency::.cpu1.data    370385500                       # number of ReadReq MSHR miss cycles
system.cpu1.dcache.ReadReq_mshr_miss_latency::total    370385500                       # number of ReadReq MSHR miss cycles
system.cpu1.dcache.ReadReq_mshr_miss_rate::.cpu1.data     0.006009                       # mshr miss rate for ReadReq accesses
system.cpu1.dcache.ReadReq_mshr_miss_rate::total     0.006009                       # mshr miss rate for ReadReq accesses
system.cpu1.dcache.ReadReq_avg_mshr_miss_latency::.cpu1.data 40958.255004                       # average ReadReq mshr miss latency
system.cpu1.dcache.ReadReq_avg_mshr_miss_latency::total 40958.255004                       # average ReadReq mshr miss latency
system.cpu1.dcache.WriteReq_hits::.cpu1.data      5824608                       # number of WriteReq hits
system.cpu1.dcache.WriteReq_hits::total       5824608                       # number of WriteReq hits
system.cpu1.dcache.WriteReq_misses::.cpu1.data      1456224                       # number of WriteReq misses
system.cpu1.dcache.WriteReq_misses::total      1456224                       # number of WriteReq misses
system.cpu1.dcache.WriteReq_miss_latency::.cpu1.data 101506046500                       # number of WriteReq miss cycles
system.cpu1.dcache.WriteReq_miss_latency::total 101506046500                       # number of WriteReq miss cycles
system.cpu1.dcache.WriteReq_accesses::.cpu1.data      7280832                       # number of WriteReq accesses(hits+misses)
system.cpu1.dcache.WriteReq_accesses::total      7280832                       # number of WriteReq accesses(hits+misses)
[...]
system.mem_ctrls.bytesPerActivate::128-255        15448      6.43%     10.44% # Bytes accessed per row activation
system.mem_ctrls.bytesPerActivate::256-383        12738      5.30%     15.74% # Bytes accessed per row activation
system.mem_ctrls.bytesPerActivate::384-511        11265      4.69%     20.43% # Bytes accessed per row activation
system.mem_ctrls.bytesPerActivate::512-639        13540      5.63%     26.06% # Bytes accessed per row activation
system.mem_ctrls.bytesPerActivate::640-767        14871      6.19%     32.25% # Bytes accessed per row activation
system.mem_ctrls.bytesPerActivate::768-895         8716      3.63%     35.87% # Bytes accessed per row activation
system.mem_ctrls.bytesPerActivate::896-1023         7889      3.28%     39.15% # Bytes accessed per row activation
system.mem_ctrls.bytesPerActivate::1024-1151       146260     60.85%    100.00% # Bytes accessed per row activation
system.mem_ctrls.bytesPerActivate::total       240380                       # Bytes accessed per row activation
system.mem_ctrls.rdPerTurnAround::samples        93390                       # Reads before turning the bus around for writes
system.mem_ctrls.rdPerTurnAround::mean      16.161741                       # Reads before turning the bus around for writes
system.mem_ctrls.rdPerTurnAround::gmean     16.065231                       # Reads before turning the bus around for writes
system.mem_ctrls.rdPerTurnAround::stdev      3.807827                       # Reads before turning the bus around for writes
system.mem_ctrls.rdPerTurnAround::0-31          93250     99.85%     99.85% # Reads before turning the bus around for writes
system.mem_ctrls.rdPerTurnAround::32-63            62      0.07%     99.92% # Reads before turning the bus around for writes
system.mem_ctrls.rdPerTurnAround::64-95            51      0.05%     99.97% # Reads before turning the bus around for writes
system.mem_ctrls.rdPerTurnAround::96-127           14      0.01%     99.99% # Reads before turning the bus around for writes
system.mem_ctrls.rdPerTurnAround::128-159            4      0.00%     99.99% # Reads before turning the bus around for writes
system.mem_ctrls.rdPerTurnAround::160-191            3      0.00%     99.99% # Reads before turning the bus around for writes
system.mem_ctrls.rdPerTurnAround::192-223            2      0.00%    100.00% # Reads before turning the bus around for writes
system.mem_ctrls.rdPerTurnAround::224-255            1      0.00%    100.00% # Reads before turning the bus around for writes
system.mem_ctrls.rdPerTurnAround::256-287            1      0.00%    100.00% # Reads before turning the bus around for writes
system.mem_ctrls.rdPerTurnAround::320-351            1      0.00%    100.00% # Reads before turning the bus around for writes
system.mem_ctrls.rdPerTurnAround::640-671            1      0.00%    100.00% # Reads before turning the bus around for writes
system.mem_ctrls.rdPerTurnAround::total         93390                       # Reads before turning the bus around for writes
system.mem_ctrls.wrPerTurnAround::samples        93390                       # Writes before turning the bus around for reads
system.mem_ctrls.wrPerTurnAround::mean      16.043666                       # Writes before turning the bus around for reads
system.mem_ctrls.wrPerTurnAround::gmean     16.039077                       # Writes before turning the bus around for reads
system.mem_ctrls.wrPerTurnAround::stdev      0.414974                       # Writes before turning the bus around for reads
system.mem_ctrls.wrPerTurnAround::16            92215     98.74%     98.74% # Writes before turning the bus around for reads
system.mem_ctrls.wrPerTurnAround::17              179      0.19%     98.93% # Writes before turning the bus around for reads
system.mem_ctrls.wrPerTurnAround::18               56      0.06%     98.99% # Writes before turning the bus around for reads
system.mem_ctrls.wrPerTurnAround::19              248      0.27%     99.26% # Writes before turning the bus around for reads
system.mem_ctrls.wrPerTurnAround::20              456      0.49%     99.75% # Writes before turning the bus around for reads
system.mem_ctrls.wrPerTurnAround::21              197      0.21%     99.96% # Writes before turning the bus around for reads
system.mem_ctrls.wrPerTurnAround::22               39      0.04%    100.00% # Writes before turning the bus around for reads
system.mem_ctrls.wrPerTurnAround::total         93390                       # Writes before turning the bus around for reads
system.mem_ctrls.bytesReadDRAM               96598656                       # Total number of bytes read from DRAM
system.mem_ctrls.bytesReadWrQ                    7936                       # Total number of bytes read from write queue
system.mem_ctrls.bytesWritten                95892352                       # Total number of bytes written to DRAM
system.mem_ctrls.bytesReadSys                96606592                       # Total read bytes from the system interface side
system.mem_ctrls.bytesWrittenSys             95895680                       # Total written bytes from the system interface side
system.mem_ctrls.avgRdBW                      1632.51                       # Average DRAM read bandwidth in MiByte/s
system.mem_ctrls.avgWrBW                      1620.57                       # Average achieved write bandwidth in MiByte/s
system.mem_ctrls.avgRdBWSys                   1632.64                       # Average system read bandwidth in MiByte/s
system.mem_ctrls.avgWrBWSys                   1620.63                       # Average system write bandwidth in MiByte/s
system.mem_ctrls.peakBW                      12800.00                       # Theoretical peak bandwidth in MiByte/s
system.mem_ctrls.busUtil                        25.41                       # Data bus utilization in percentage
system.mem_ctrls.busUtilRead                    12.75                       # Data bus utilization in percentage for reads
system.mem_ctrls.busUtilWrite                   12.66                       # Data bus utilization in percentage for writes
system.mem_ctrls.totGap                   59171810000                       # Total gap between requests
system.mem_ctrls.avgGap                      19672.47                       # Average gap between requests
system.mem_ctrls.masterReadBytes::.cpu0.inst        98240                       # Per-master bytes read from memory
system.mem_ctrls.masterReadBytes::.cpu0.data     37923776                       # Per-master bytes read from memory
system.mem_ctrls.masterReadBytes::.cpu1.inst       164800                       # Per-master bytes read from memory
system.mem_ctrls.masterReadBytes::.cpu1.data     58411840                       # Per-master bytes read from memory
system.mem_ctrls.masterWriteBytes::.writebacks     95892352                       # Per-master bytes write to memory
system.mem_ctrls.masterReadRate::.cpu0.inst 1660248.961125491885                       # Per-master bytes read from memory rate (Bytes/sec)
system.mem_ctrls.masterReadRate::.cpu0.data 640909097.169746160507                       # Per-master bytes read from memory rate (Bytes/sec)
system.mem_ctrls.masterReadRate::.cpu1.inst 2785108.192116053309                       # Per-master bytes read from memory rate (Bytes/sec)
system.mem_ctrls.masterReadRate::.cpu1.data 987155910.804442763329                       # Per-master bytes read from memory rate (Bytes/sec)
system.mem_ctrls.masterWriteRate::.writebacks 1620573878.133957624435                       # Per-master bytes write to memory rate (Bytes/sec)
system.mem_ctrls.masterReadAccesses::.cpu0.inst         1535                       # Per-master read serviced memory accesses
system.mem_ctrls.masterReadAccesses::.cpu0.data       592561                       # Per-master read serviced memory accesses
system.mem_ctrls.masterReadAccesses::.cpu1.inst         2575                       # Per-master read serviced memory accesses
system.mem_ctrls.masterReadAccesses::.cpu1.data       912807                       # Per-master read serviced memory accesses
system.mem_ctrls.masterWriteAccesses::.writebacks      1498370                       # Per-master write serviced memory accesses
system.mem_ctrls.masterReadTotalLat::.cpu0.inst     48678250                       # Per-master read total memory access latency
system.mem_ctrls.masterReadTotalLat::.cpu0.data  21060472250                       # Per-master read total memory access latency
system.mem_ctrls.masterReadTotalLat::.cpu1.inst     77939500                       # Per-master read total memory access latency
system.mem_ctrls.masterReadTotalLat::.cpu1.data  32770009250                       # Per-master read total memory access latency
system.mem_ctrls.masterWriteTotalLat::.writebacks 1501141233250                       # Per-master write total memory access latency
system.mem_ctrls.masterReadAvgLat::.cpu0.inst     31712.21                       # Per-master read average memory access latency
system.mem_ctrls.masterReadAvgLat::.cpu0.data     35541.44                       # Per-master read average memory access latency
system.mem_ctrls.masterReadAvgLat::.cpu1.inst     30267.77                       # Per-master read average memory access latency
system.mem_ctrls.masterReadAvgLat::.cpu1.data     35900.26                       # Per-master read average memory access latency
system.mem_ctrls.masterWriteAvgLat::.writebacks   1001849.50                       # Per-master write average memory access latency
system.mem_ctrls.pageHitRate                    92.01                       # Row buffer hit rate, read and write combined
system.mem_ctrls.rank1.actEnergy            856785720                       # Energy for activate commands per rank (pJ)
system.mem_ctrls.rank1.preEnergy            455392410                       # Energy for precharge commands per rank (pJ)
system.mem_ctrls.rank1.readEnergy          5385580620                       # Energy for read commands per rank (pJ)
system.mem_ctrls.rank1.writeEnergy         3908803860                       # Energy for write commands per rank (pJ)
system.mem_ctrls.rank1.refreshEnergy     4670649360.000001                       # Energy for refresh commands per rank (pJ)
system.mem_ctrls.rank1.actBackEnergy      20289431010                       # Energy for active background per rank (pJ)
system.mem_ctrls.rank1.preBackEnergy       5636153280                       # Energy for precharge background per rank (pJ)
system.mem_ctrls.rank1.actPowerDownEnergy            0                       # Energy for active power-down per rank (pJ)
system.mem_ctrls.rank1.prePowerDownEnergy            0                       # Energy for precharge power-down per rank (pJ)
system.mem_ctrls.rank1.selfRefreshEnergy            0                       # Energy for self refresh per rank (pJ)
system.mem_ctrls.rank1.totalEnergy        41202796260                       # Total energy per rank (pJ)
system.mem_ctrls.rank1.averagePower        696.324305                       # Core power per rank (mW)
system.mem_ctrls.rank1.totalIdleTime                0                       # Total Idle time Per DRAM Rank
system.mem_ctrls.rank1.memoryStateTime::IDLE  14317029750                       # Time in different power states
system.mem_ctrls.rank1.memoryStateTime::REF   1975740000                       # Time in different power states
system.mem_ctrls.rank1.memoryStateTime::SREF            0                       # Time in different power states
system.mem_ctrls.rank1.memoryStateTime::PRE_PDN            0                       # Time in different power states
system.mem_ctrls.rank1.memoryStateTime::ACT  42879078750                       # Time in different power states
system.mem_ctrls.rank1.memoryStateTime::ACT_PDN            0                       # Time in different power states
system.mem_ctrls.rank0.actEnergy            859556040                       # Energy for activate commands per rank (pJ)
system.mem_ctrls.rank0.preEnergy            456849690                       # Energy for precharge commands per rank (pJ)
system.mem_ctrls.rank0.readEnergy          5391206940                       # Energy for read commands per rank (pJ)
system.mem_ctrls.rank0.writeEnergy         3912416100                       # Energy for write commands per rank (pJ)
system.mem_ctrls.rank0.refreshEnergy     4670649360.000001                       # Energy for refresh commands per rank (pJ)
system.mem_ctrls.rank0.actBackEnergy      20311303050                       # Energy for active background per rank (pJ)
system.mem_ctrls.rank0.preBackEnergy       5617734720                       # Energy for precharge background per rank (pJ)
system.mem_ctrls.rank0.actPowerDownEnergy            0                       # Energy for active power-down per rank (pJ)
system.mem_ctrls.rank0.prePowerDownEnergy            0                       # Energy for precharge power-down per rank (pJ)
system.mem_ctrls.rank0.selfRefreshEnergy            0                       # Energy for self refresh per rank (pJ)
system.mem_ctrls.rank0.totalEnergy        41219715900                       # Total energy per rank (pJ)
system.mem_ctrls.rank0.averagePower        696.610245                       # Core power per rank (mW)
system.mem_ctrls.rank0.totalIdleTime                0                       # Total Idle time Per DRAM Rank
system.mem_ctrls.rank0.memoryStateTime::IDLE  14269350250                       # Time in different power states
system.mem_ctrls.rank0.memoryStateTime::REF   1975740000                       # Time in different power states
system.mem_ctrls.rank0.memoryStateTime::SREF            0                       # Time in different power states
system.mem_ctrls.rank0.memoryStateTime::PRE_PDN            0                       # Time in different power states
system.mem_ctrls.rank0.memoryStateTime::ACT  42926758250                       # Time in different power states
system.mem_ctrls.rank0.memoryStateTime::ACT_PDN            0                       # Time in different power states
system.mem_ctrls.power_state.pwrStateResidencyTicks::UNDEFINED  59171848500                       # Cumulative time (in ticks) in various power states
system.cpu_clk_domain.clock                       500                       # Clock period in ticks
system.tol2bus.trans_dist::ReadResp             45146                       # Transaction distribution
system.tol2bus.trans_dist::WritebackDirty      3007813                       # Transaction distribution
system.tol2bus.trans_dist::WritebackClean        19971                       # Transaction distribution
system.tol2bus.trans_dist::CleanEvict           31563                       # Transaction distribution
system.tol2bus.trans_dist::ReadExReq          1505617                       # Transaction distribution
system.tol2bus.trans_dist::ReadExResp         1505615                       # Transaction distribution
system.tol2bus.trans_dist::ReadCleanReq         20003                       # Transaction distribution
system.tol2bus.trans_dist::ReadSharedReq        25143                       # Transaction distribution
system.tol2bus.pkt_count_system.cpu0.icache.mem_side::system.l2.cpu_side        26657                       # Packet count per connected master and slave (bytes)
system.tol2bus.pkt_count_system.cpu0.dcache.mem_side::system.l2.cpu_side      1833513                       # Packet count per connected master and slave (bytes)
system.tol2bus.pkt_count_system.cpu1.icache.mem_side::system.l2.cpu_side        33320                       # Packet count per connected master and slave (bytes)
system.tol2bus.pkt_count_system.cpu1.dcache.mem_side::system.l2.cpu_side      2758731                       # Packet count per connected master and slave (bytes)
system.tol2bus.pkt_count::total               4652221                       # Packet count per connected master and slave (bytes)
system.tol2bus.pkt_size_system.cpu0.icache.mem_side::system.l2.cpu_side      1137024                       # Cumulative packet size per connected master and slave (bytes)
system.tol2bus.pkt_size_system.cpu0.dcache.mem_side::system.l2.cpu_side     77344832                       # Cumulative packet size per connected master and slave (bytes)
system.tol2bus.pkt_size_system.cpu1.icache.mem_side::system.l2.cpu_side      1421312                       # Cumulative packet size per connected master and slave (bytes)
system.tol2bus.pkt_size_system.cpu1.dcache.mem_side::system.l2.cpu_side    117227968                       # Cumulative packet size per connected master and slave (bytes)
system.tol2bus.pkt_size::total              197131136                       # Cumulative packet size per connected master and slave (bytes)
system.tol2bus.snoops                         1508650                       # Total snoops (count)
system.tol2bus.snoopTraffic                  95895744                       # Total snoop traffic (bytes)
system.tol2bus.snoop_fanout::samples          3059413                       # Request fanout histogram
system.tol2bus.snoop_fanout::mean            0.000118                       # Request fanout histogram
system.tol2bus.snoop_fanout::stdev           0.010847                       # Request fanout histogram
system.tol2bus.snoop_fanout::underflows             0      0.00%      0.00% # Request fanout histogram
system.tol2bus.snoop_fanout::0                3059053     99.99%     99.99% # Request fanout histogram
system.tol2bus.snoop_fanout::1                    360      0.01%    100.00% # Request fanout histogram
system.tol2bus.snoop_fanout::2                      0      0.00%    100.00% # Request fanout histogram
system.tol2bus.snoop_fanout::3                      0      0.00%    100.00% # Request fanout histogram
system.tol2bus.snoop_fanout::4                      0      0.00%    100.00% # Request fanout histogram
system.tol2bus.snoop_fanout::5                      0      0.00%    100.00% # Request fanout histogram
system.tol2bus.snoop_fanout::6                      0      0.00%    100.00% # Request fanout histogram
system.tol2bus.snoop_fanout::7                      0      0.00%    100.00% # Request fanout histogram
system.tol2bus.snoop_fanout::8                      0      0.00%    100.00% # Request fanout histogram
system.tol2bus.snoop_fanout::overflows              0      0.00%    100.00% # Request fanout histogram
system.tol2bus.snoop_fanout::min_value              0                       # Request fanout histogram
system.tol2bus.snoop_fanout::max_value              1                       # Request fanout histogram
system.tol2bus.snoop_fanout::total            3059413                       # Request fanout histogram
system.tol2bus.reqLayer0.occupancy         3080143000                       # Layer occupancy (ticks)
system.tol2bus.reqLayer0.utilization              5.2                       # Layer utilization (%)
system.tol2bus.respLayer5.occupancy        1379445853                       # Layer occupancy (ticks)
system.tol2bus.respLayer5.utilization             2.3                       # Layer utilization (%)
system.tol2bus.respLayer4.occupancy          16689955                       # Layer occupancy (ticks)
system.tol2bus.respLayer4.utilization             0.0                       # Layer utilization (%)
system.tol2bus.respLayer1.occupancy         916783960                       # Layer occupancy (ticks)
system.tol2bus.respLayer1.utilization             1.5                       # Layer utilization (%)
system.tol2bus.respLayer0.occupancy          13351470                       # Layer occupancy (ticks)
system.tol2bus.respLayer0.utilization             0.0                       # Layer utilization (%)
system.tol2bus.power_state.pwrStateResidencyTicks::UNDEFINED  59171848500                       # Cumulative time (in ticks) in various power states

---------- End Simulation Statistics   ----------
