
---------- Begin Simulation Statistics ----------
final_tick                                14153584000                       # Number of ticks from beginning of simulation (restored from checkpoints and never reset)
host_inst_rate                                 250982                       # Simulator instruction rate (inst/s)
host_mem_usage                                4434544                       # Number of bytes of host memory used
host_op_rate                                   413783                       # Simulator op (including micro ops) rate (op/s)
host_seconds                                    49.82                       # Real time elapsed on the host
host_tick_rate                              284118459                       # Simulator tick rate (ticks/s)
sim_freq                                 1000000000000                       # Frequency of simulated ticks
sim_insts                                    12502862                       # Number of instructions simulated
sim_ops                                      20612908                       # Number of ops (including micro ops) simulated
sim_seconds                                  0.014154                       # Number of seconds simulated
sim_ticks                                 14153584000                       # Number of ticks simulated
system.cpu0.branchPred.BTBCorrect                   0                       # Number of correct BTB predictions (this stat may not work properly.
system.cpu0.branchPred.BTBHitPct                  nan                       # BTB Hit Percentage
system.cpu0.branchPred.BTBHits                      0                       # Number of BTB hits
system.cpu0.branchPred.BTBLookups                   0                       # Number of BTB lookups
system.cpu0.branchPred.RASInCorrect                 0                       # Number of incorrect RAS predictions.
system.cpu0.branchPred.condIncorrect               43                       # Number of conditional branches incorrect
system.cpu0.branchPred.condPredicted               90                       # Number of conditional branches predicted
system.cpu0.branchPred.indirectHits                 0                       # Number of indirect target hits.
system.cpu0.branchPred.indirectLookups             24                       # Number of indirect predictor lookups.
system.cpu0.branchPred.indirectMisses              24                       # Number of indirect misses.
system.cpu0.branchPred.lookups                     90                       # Number of BP lookups
system.cpu0.branchPred.usedRAS                      0                       # Number of times the RAS was used to get a target.
system.cpu0.branchPredindirectMispredicted           15                       # Number of mispredicted indirect branches.
system.cpu0.committedInsts                   10000000                       # Number of instructions committed
system.cpu0.committedOps                     16927931                       # Number of ops (including micro ops) committed
system.cpu0.cpi                              2.830717                       # CPI: cycles per instruction
system.cpu0.discardedOps                      2872106                       # Number of ops (including micro ops) which were discarded before commit
system.cpu0.dtb.rdAccesses                    4157455                       # TLB accesses on read requests
system.cpu0.dtb.rdMisses                         2424                       # TLB misses on read requests
system.cpu0.dtb.wrAccesses                    2003220                       # TLB accesses on write requests
system.cpu0.dtb.wrMisses                         1715                       # TLB misses on write requests
system.cpu0.fetch2.amo_instructions                 0                       # Number of memory atomic instructions successfully decoded
system.cpu0.fetch2.fp_instructions                  0                       # Number of floating point instructions successfully decoded
system.cpu0.fetch2.int_instructions                 8                       # Number of integer instructions successfully decoded
system.cpu0.fetch2.load_instructions                0                       # Number of memory load instructions successfully decoded
system.cpu0.fetch2.store_instructions               0                       # Number of memory store instructions successfully decoded
system.cpu0.fetch2.vec_instructions                 0                       # Number of SIMD instructions successfully decoded
system.cpu0.idleCycles                        5378385                       # Total number of cycles that the object has spent stopped
system.cpu0.ipc                              0.353267                       # IPC: instructions per cycle
system.cpu0.itb.rdAccesses                          0                       # TLB accesses on read requests
system.cpu0.itb.rdMisses                            0                       # TLB misses on read requests
system.cpu0.itb.wrAccesses                    2443232                       # TLB accesses on write requests
system.cpu0.itb.wrMisses                          210                       # TLB misses on write requests
system.cpu0.numCycles                        28307168                       # number of cpu cycles simulated
system.cpu0.numFetchSuspends                        0                       # Number of times Execute suspended instruction fetching
system.cpu0.numWorkItemsCompleted                   0                       # number of work items this cpu completed
system.cpu0.numWorkItemsStarted                     0                       # number of work items this cpu started
system.cpu0.op_class_0::No_OpClass              31838      0.19%      0.19% # Class of committed instruction
system.cpu0.op_class_0::IntAlu               11081465     65.46%     65.65% # Class of committed instruction
system.cpu0.op_class_0::IntMult                    77      0.00%     65.65% # Class of committed instruction
system.cpu0.op_class_0::IntDiv                   1369      0.01%     65.66% # Class of committed instruction
system.cpu0.op_class_0::FloatAdd                  223      0.00%     65.66% # Class of committed instruction
system.cpu0.op_class_0::FloatCmp                    0      0.00%     65.66% # Class of committed instruction
system.cpu0.op_class_0::FloatCvt                  176      0.00%     65.66% # Class of committed instruction
system.cpu0.op_class_0::FloatMult                   0      0.00%     65.66% # Class of committed instruction
system.cpu0.op_class_0::FloatMultAcc                0      0.00%     65.66% # Class of committed instruction
system.cpu0.op_class_0::FloatDiv                    0      0.00%     65.66% # Class of committed instruction
system.cpu0.op_class_0::FloatMisc                   0      0.00%     65.66% # Class of committed instruction
system.cpu0.op_class_0::FloatSqrt                   0      0.00%     65.66% # Class of committed instruction
system.cpu0.op_class_0::SimdAdd                   952      0.01%     65.67% # Class of committed instruction
system.cpu0.op_class_0::SimdAddAcc                  0      0.00%     65.67% # Class of committed instruction
system.cpu0.op_class_0::SimdAlu                   988      0.01%     65.67% # Class of committed instruction
system.cpu0.op_class_0::SimdCmp                     0      0.00%     65.67% # Class of committed instruction
system.cpu0.op_class_0::SimdCvt                  1344      0.01%     65.68% # Class of committed instruction
system.cpu0.op_class_0::SimdMisc                  912      0.01%     65.69% # Class of committed instruction
system.cpu0.op_class_0::SimdMult                    0      0.00%     65.69% # Class of committed instruction
system.cpu0.op_class_0::SimdMultAcc                 0      0.00%     65.69% # Class of committed instruction
system.cpu0.op_class_0::SimdShift                 333      0.00%     65.69% # Class of committed instruction
system.cpu0.op_class_0::SimdShiftAcc                0      0.00%     65.69% # Class of committed instruction
system.cpu0.op_class_0::SimdDiv                     0      0.00%     65.69% # Class of committed instruction
system.cpu0.op_class_0::SimdSqrt                    0      0.00%     65.69% # Class of committed instruction
system.cpu0.op_class_0::SimdFloatAdd                0      0.00%     65.69% # Class of committed instruction
system.cpu0.op_class_0::SimdFloatAlu                0      0.00%     65.69% # Class of committed instruction
system.cpu0.op_class_0::SimdFloatCmp                0      0.00%     65.69% # Class of committed instruction
system.cpu0.op_class_0::SimdFloatCvt                0      0.00%     65.69% # Class of committed instruction
system.cpu0.op_class_0::SimdFloatDiv                0      0.00%     65.69% # Class of committed instruction
system.cpu0.op_class_0::SimdFloatMisc               0      0.00%     65.69% # Class of committed instruction
system.cpu0.op_class_0::SimdFloatMult               0      0.00%     65.69% # Class of committed instruction
system.cpu0.op_class_0::SimdFloatMultAcc            0      0.00%     65.69% # Class of committed instruction
system.cpu0.op_class_0::SimdFloatSqrt               0      0.00%     65.69% # Class of committed instruction
system.cpu0.op_class_0::SimdReduceAdd               0      0.00%     65.69% # Class of committed instruction
system.cpu0.op_class_0::SimdReduceAlu               0      0.00%     65.69% # Class of committed instruction
system.cpu0.op_class_0::SimdReduceCmp               0      0.00%     65.69% # Class of committed instruction
system.cpu0.op_class_0::SimdFloatReduceAdd            0      0.00%     65.69% # Class of committed instruction
system.cpu0.op_class_0::SimdFloatReduceCmp            0      0.00%     65.69% # Class of committed instruction
system.cpu0.op_class_0::SimdAes                     0      0.00%     65.69% # Class of committed instruction
system.cpu0.op_class_0::SimdAesMix                  0      0.00%     65.69% # Class of committed instruction
system.cpu0.op_class_0::SimdSha1Hash                0      0.00%     65.69% # Class of committed instruction
system.cpu0.op_class_0::SimdSha1Hash2               0      0.00%     65.69% # Class of committed instruction
system.cpu0.op_class_0::SimdSha256Hash              0      0.00%     65.69% # Class of committed instruction
system.cpu0.op_class_0::SimdSha256Hash2             0      0.00%     65.69% # Class of committed instruction
system.cpu0.op_class_0::SimdShaSigma2               0      0.00%     65.69% # Class of committed instruction
system.cpu0.op_class_0::SimdShaSigma3               0      0.00%     65.69% # Class of committed instruction
system.cpu0.op_class_0::SimdPredAlu                 0      0.00%     65.69% # Class of committed instruction
system.cpu0.op_class_0::MemRead               3833806     22.65%     88.34% # Class of committed instruction
system.cpu0.op_class_0::MemWrite              1911134     11.29%     99.63% # Class of committed instruction
system.cpu0.op_class_0::FloatMemRead            31918      0.19%     99.81% # Class of committed instruction
system.cpu0.op_class_0::FloatMemWrite           31396      0.19%    100.00% # Class of committed instruction
system.cpu0.op_class_0::IprAccess                   0      0.00%    100.00% # Class of committed instruction
system.cpu0.op_class_0::InstPrefetch                0      0.00%    100.00% # Class of committed instruction
system.cpu0.op_class_0::total                16927931                       # Class of committed instruction
system.cpu0.tickCycles                       22928783                       # Number of cycles that the object actually ticked
system.cpu0.workload.numSyscalls                   43                       # Number of system calls
system.cpu1.branchPred.BTBCorrect                   0                       # Number of correct BTB predictions (this stat may not work properly.
system.cpu1.branchPred.BTBHitPct                  nan                       # BTB Hit Percentage
system.cpu1.branchPred.BTBHits                      0                       # Number of BTB hits
system.cpu1.branchPred.BTBLookups                   0                       # Number of BTB lookups
system.cpu1.branchPred.RASInCorrect                 0                       # Number of incorrect RAS predictions.
system.cpu1.branchPred.condIncorrect               40                       # Number of conditional branches incorrect
system.cpu1.branchPred.condPredicted               85                       # Number of conditional branches predicted
system.cpu1.branchPred.indirectHits                 0                       # Number of indirect target hits.
system.cpu1.branchPred.indirectLookups             25                       # Number of indirect predictor lookups.
system.cpu1.branchPred.indirectMisses              25                       # Number of indirect misses.
system.cpu1.branchPred.lookups                     85                       # Number of BP lookups
system.cpu1.branchPred.usedRAS                      0                       # Number of times the RAS was used to get a target.
system.cpu1.branchPredindirectMispredicted           11                       # Number of mispredicted indirect branches.
system.cpu1.committedInsts                    2502862                       # Number of instructions committed
system.cpu1.committedOps                      3684977                       # Number of ops (including micro ops) committed
system.cpu1.cpi                             11.309907                       # CPI: cycles per instruction
system.cpu1.discardedOps                       512428                       # Number of ops (including micro ops) which were discarded before commit
system.cpu1.dtb.rdAccesses                     484649                       # TLB accesses on read requests
system.cpu1.dtb.rdMisses                        88284                       # TLB misses on read requests
system.cpu1.dtb.wrAccesses                    1739573                       # TLB accesses on write requests
system.cpu1.dtb.wrMisses                         6788                       # TLB misses on write requests
system.cpu1.fetch2.amo_instructions                 0                       # Number of memory atomic instructions successfully decoded
system.cpu1.fetch2.fp_instructions                  0                       # Number of floating point instructions successfully decoded
system.cpu1.fetch2.int_instructions                 8                       # Number of integer instructions successfully decoded
system.cpu1.fetch2.load_instructions                0                       # Number of memory load instructions successfully decoded
system.cpu1.fetch2.store_instructions               0                       # Number of memory store instructions successfully decoded
system.cpu1.fetch2.vec_instructions                 0                       # Number of SIMD instructions successfully decoded
system.cpu1.idleCycles                       23184724                       # Total number of cycles that the object has spent stopped
system.cpu1.ipc                              0.088418                       # IPC: instructions per cycle
system.cpu1.itb.rdAccesses                          0                       # TLB accesses on read requests
system.cpu1.itb.rdMisses                            0                       # TLB misses on read requests
system.cpu1.itb.wrAccesses                     595541                       # TLB accesses on write requests
system.cpu1.itb.wrMisses                          250                       # TLB misses on write requests
system.cpu1.numCycles                        28307136                       # number of cpu cycles simulated
system.cpu1.numFetchSuspends                        0                       # Number of times Execute suspended instruction fetching
system.cpu1.numWorkItemsCompleted                   0                       # number of work items this cpu completed
system.cpu1.numWorkItemsStarted                     0                       # number of work items this cpu started
system.cpu1.op_class_0::No_OpClass               1997      0.05%      0.05% # Class of committed instruction
system.cpu1.op_class_0::IntAlu                1374840     37.31%     37.36% # Class of committed instruction
system.cpu1.op_class_0::IntMult                    36      0.00%     37.36% # Class of committed instruction
system.cpu1.op_class_0::IntDiv                   1447      0.04%     37.40% # Class of committed instruction
system.cpu1.op_class_0::FloatAdd               258579      7.02%     44.42% # Class of committed instruction
system.cpu1.op_class_0::FloatCmp                    0      0.00%     44.42% # Class of committed instruction
system.cpu1.op_class_0::FloatCvt                  112      0.00%     44.42% # Class of committed instruction
system.cpu1.op_class_0::FloatMult                   0      0.00%     44.42% # Class of committed instruction
system.cpu1.op_class_0::FloatMultAcc                0      0.00%     44.42% # Class of committed instruction
system.cpu1.op_class_0::FloatDiv                    0      0.00%     44.42% # Class of committed instruction
system.cpu1.op_class_0::FloatMisc                   0      0.00%     44.42% # Class of committed instruction
system.cpu1.op_class_0::FloatSqrt                   0      0.00%     44.42% # Class of committed instruction
system.cpu1.op_class_0::SimdAdd                  1140      0.03%     44.45% # Class of committed instruction
system.cpu1.op_class_0::SimdAddAcc                  0      0.00%     44.45% # Class of committed instruction
system.cpu1.op_class_0::SimdAlu                  1367      0.04%     44.49% # Class of committed instruction
system.cpu1.op_class_0::SimdCmp                    12      0.00%     44.49% # Class of committed instruction
system.cpu1.op_class_0::SimdCvt                  1866      0.05%     44.54% # Class of committed instruction
system.cpu1.op_class_0::SimdMisc                 1287      0.03%     44.58% # Class of committed instruction
system.cpu1.op_class_0::SimdMult                    0      0.00%     44.58% # Class of committed instruction
system.cpu1.op_class_0::SimdMultAcc                 0      0.00%     44.58% # Class of committed instruction
system.cpu1.op_class_0::SimdShift                 426      0.01%     44.59% # Class of committed instruction
system.cpu1.op_class_0::SimdShiftAcc                0      0.00%     44.59% # Class of committed instruction
system.cpu1.op_class_0::SimdDiv                     0      0.00%     44.59% # Class of committed instruction
system.cpu1.op_class_0::SimdSqrt                    0      0.00%     44.59% # Class of committed instruction
system.cpu1.op_class_0::SimdFloatAdd                0      0.00%     44.59% # Class of committed instruction
system.cpu1.op_class_0::SimdFloatAlu                0      0.00%     44.59% # Class of committed instruction
system.cpu1.op_class_0::SimdFloatCmp                0      0.00%     44.59% # Class of committed instruction
system.cpu1.op_class_0::SimdFloatCvt                2      0.00%     44.59% # Class of committed instruction
system.cpu1.op_class_0::SimdFloatDiv                0      0.00%     44.59% # Class of committed instruction
system.cpu1.op_class_0::SimdFloatMisc               0      0.00%     44.59% # Class of committed instruction
system.cpu1.op_class_0::SimdFloatMult               0      0.00%     44.59% # Class of committed instruction
system.cpu1.op_class_0::SimdFloatMultAcc            0      0.00%     44.59% # Class of committed instruction
system.cpu1.op_class_0::SimdFloatSqrt               0      0.00%     44.59% # Class of committed instruction
system.cpu1.op_class_0::SimdReduceAdd               0      0.00%     44.59% # Class of committed instruction
system.cpu1.op_class_0::SimdReduceAlu               0      0.00%     44.59% # Class of committed instruction
system.cpu1.op_class_0::SimdReduceCmp               0      0.00%     44.59% # Class of committed instruction
system.cpu1.op_class_0::SimdFloatReduceAdd            0      0.00%     44.59% # Class of committed instruction
system.cpu1.op_class_0::SimdFloatReduceCmp            0      0.00%     44.59% # Class of committed instruction
system.cpu1.op_class_0::SimdAes                     0      0.00%     44.59% # Class of committed instruction
system.cpu1.op_class_0::SimdAesMix                  0      0.00%     44.59% # Class of committed instruction
system.cpu1.op_class_0::SimdSha1Hash                0      0.00%     44.59% # Class of committed instruction
system.cpu1.op_class_0::SimdSha1Hash2               0      0.00%     44.59% # Class of committed instruction
system.cpu1.op_class_0::SimdSha256Hash              0      0.00%     44.59% # Class of committed instruction
system.cpu1.op_class_0::SimdSha256Hash2             0      0.00%     44.59% # Class of committed instruction
system.cpu1.op_class_0::SimdShaSigma2               0      0.00%     44.59% # Class of committed instruction
system.cpu1.op_class_0::SimdShaSigma3               0      0.00%     44.59% # Class of committed instruction
system.cpu1.op_class_0::SimdPredAlu                 0      0.00%     44.59% # Class of committed instruction
system.cpu1.op_class_0::MemRead                 42409      1.15%     45.74% # Class of committed instruction
system.cpu1.op_class_0::MemWrite               101187      2.75%     48.49% # Class of committed instruction
system.cpu1.op_class_0::FloatMemRead           260661      7.07%     55.56% # Class of committed instruction
system.cpu1.op_class_0::FloatMemWrite         1637609     44.44%    100.00% # Class of committed instruction
system.cpu1.op_class_0::IprAccess                   0      0.00%    100.00% # Class of committed instruction
system.cpu1.op_class_0::InstPrefetch                0      0.00%    100.00% # Class of committed instruction
system.cpu1.op_class_0::total                 3684977                       # Class of committed instruction
system.cpu1.tickCycles                        5122412                       # Number of cycles that the object actually ticked
system.cpu1.workload.numSyscalls                   40                       # Number of system calls
system.membus.snoop_filter.hit_multi_requests            0                       # Number of requests hitting in the snoop filter with multiple (>1) holders of the requested data.
system.membus.snoop_filter.hit_multi_snoops            0                       # Number of snoops hitting in the snoop filter with multiple (>1) holders of the requested data.
system.membus.snoop_filter.hit_single_requests       238391                       # Number of requests hitting in the snoop filter with a single holder of the requested data.
system.membus.snoop_filter.hit_single_snoops            0                       # Number of snoops hitting in the snoop filter with a single holder of the requested data.
system.membus.snoop_filter.tot_requests        477826                       # Total number of requests made to the snoop filter.
system.membus.snoop_filter.tot_snoops               0                       # Total number of snoops made to the snoop filter.
system.tol2bus.snoop_filter.hit_multi_requests            1                       # Number of requests hitting in the snoop filter with multiple (>1) holders of the requested data.
system.tol2bus.snoop_filter.hit_multi_snoops            0                       # Number of snoops hitting in the snoop filter with multiple (>1) holders of the requested data.
system.tol2bus.snoop_filter.hit_single_requests       472649                       # Number of requests hitting in the snoop filter with a single holder of the requested data.
system.tol2bus.snoop_filter.hit_single_snoops          230                       # Number of snoops hitting in the snoop filter with a single holder of the requested data.
system.tol2bus.snoop_filter.tot_requests       945364                       # Total number of requests made to the snoop filter.
system.tol2bus.snoop_filter.tot_snoops            230                       # Total number of snoops made to the snoop filter.
system.membus.trans_dist::ReadResp              15563                       # Transaction distribution
system.membus.trans_dist::WritebackDirty       223451                       # Transaction distribution
system.membus.trans_dist::CleanEvict            14940                       # Transaction distribution
system.membus.trans_dist::ReadExReq            223872                       # Transaction distribution
system.membus.trans_dist::ReadExResp           223870                       # Transaction distribution
system.membus.trans_dist::ReadSharedReq         15563                       # Transaction distribution
system.membus.pkt_count_system.l2.mem_side::system.mem_ctrls.port       717259                       # Packet count per connected master and slave (bytes)
system.membus.pkt_count_system.l2.mem_side::total       717259                       # Packet count per connected master and slave (bytes)
system.membus.pkt_count::total                 717259                       # Packet count per connected master and slave (bytes)
system.membus.pkt_size_system.l2.mem_side::system.mem_ctrls.port     29624576                       # Cumulative packet size per connected master and slave (bytes)
system.membus.pkt_size_system.l2.mem_side::total     29624576                       # Cumulative packet size per connected master and slave (bytes)
system.membus.pkt_size::total                29624576                       # Cumulative packet size per connected master and slave (bytes)
system.membus.snoops                                0                       # Total snoops (count)
system.membus.snoopTraffic                          0                       # Total snoop traffic (bytes)
system.membus.snoop_fanout::samples            239435                       # Request fanout histogram
system.membus.snoop_fanout::mean                    0                       # Request fanout histogram
system.membus.snoop_fanout::stdev                   0                       # Request fanout histogram
system.membus.snoop_fanout::underflows              0      0.00%      0.00% # Request fanout histogram
system.membus.snoop_fanout::0                  239435    100.00%    100.00% # Request fanout histogram
system.membus.snoop_fanout::1                       0      0.00%    100.00% # Request fanout histogram
system.membus.snoop_fanout::overflows               0      0.00%    100.00% # Request fanout histogram
system.membus.snoop_fanout::min_value               0                       # Request fanout histogram
system.membus.snoop_fanout::max_value               0                       # Request fanout histogram
system.membus.snoop_fanout::total              239435                       # Request fanout histogram
system.membus.reqLayer4.occupancy          1460400500                       # Layer occupancy (ticks)
system.membus.reqLayer4.utilization              10.3                       # Layer utilization (%)
system.membus.respLayer1.occupancy         1252271000                       # Layer occupancy (ticks)
system.membus.respLayer1.utilization              8.8                       # Layer utilization (%)
system.membus.power_state.pwrStateResidencyTicks::UNDEFINED  14153584000                       # Cumulative time (in ticks) in various power states
system.voltage_domain.voltage                       1                       # Voltage in Volts
system.clk_domain.clock                          1000                       # Clock period in ticks
system.cpu0.icache.demand_hits::.cpu0.inst      2429364                       # number of demand (read+write) hits
system.cpu0.icache.demand_hits::total         2429364                       # number of demand (read+write) hits
system.cpu0.icache.overall_hits::.cpu0.inst      2429364                       # number of overall hits
system.cpu0.icache.overall_hits::total        2429364                       # number of overall hits
system.cpu0.icache.demand_misses::.cpu0.inst        13821                       # number of demand (read+write) misses
system.cpu0.icache.demand_misses::total         13821                       # number of demand (read+write) misses
system.cpu0.icache.overall_misses::.cpu0.inst        13821                       # number of overall misses
system.cpu0.icache.overall_misses::total        13821                       # number of overall misses
system.cpu0.icache.demand_miss_latency::.cpu0.inst    394304000                       # number of demand (read+write) miss cycles
system.cpu0.icache.demand_miss_latency::total    394304000                       # number of demand (read+write) miss cycles
system.cpu0.icache.overall_miss_latency::.cpu0.inst    394304000                       # number of overall miss cycles
system.cpu0.icache.overall_miss_latency::total    394304000                       # number of overall miss cycles
system.cpu0.icache.demand_accesses::.cpu0.inst      2443185                       # number of demand (read+write) accesses
system.cpu0.icache.demand_accesses::total      2443185                       # number of demand (read+write) accesses
system.cpu0.icache.overall_accesses::.cpu0.inst      2443185                       # number of overall (read+write) accesses
system.cpu0.icache.overall_accesses::total      2443185                       # number of overall (read+write) accesses
system.cpu0.icache.demand_miss_rate::.cpu0.inst     0.005657                       # miss rate for demand accesses
system.cpu0.icache.demand_miss_rate::total     0.005657                       # miss rate for demand accesses
system.cpu0.icache.overall_miss_rate::.cpu0.inst     0.005657                       # miss rate for overall accesses
system.cpu0.icache.overall_miss_rate::total     0.005657                       # miss rate for overall accesses
system.cpu0.icache.demand_avg_miss_latency::.cpu0.inst 28529.339411                       # average overall miss latency
system.cpu0.icache.demand_avg_miss_latency::total 28529.339411                       # average overall miss latency
system.cpu0.icache.overall_avg_miss_latency::.cpu0.inst 28529.339411                       # average overall miss latency
system.cpu0.icache.overall_avg_miss_latency::total 28529.339411                       # average overall miss latency
system.cpu0.icache.blocked_cycles::no_mshrs            0                       # number of cycles access was blocked
system.cpu0.icache.blocked_cycles::no_targets            0                       # number of cycles access was blocked
system.cpu0.icache.blocked::no_mshrs                0                       # number of cycles access was blocked
system.cpu0.icache.blocked::no_targets              0                       # number of cycles access was blocked
system.cpu0.icache.avg_blocked_cycles::no_mshrs          nan                       # average number of cycles each access was blocked
system.cpu0.icache.avg_blocked_cycles::no_targets          nan                       # average number of cycles each access was blocked
system.cpu0.icache.writebacks::.writebacks        13805                       # number of writebacks
system.cpu0.icache.writebacks::total            13805                       # number of writebacks
system.cpu0.icache.demand_mshr_misses::.cpu0.inst        13821                       # number of demand (read+write) MSHR misses
system.cpu0.icache.demand_mshr_misses::total        13821                       # number of demand (read+write) MSHR misses
system.cpu0.icache.overall_mshr_misses::.cpu0.inst        13821                       # number of overall MSHR misses
system.cpu0.icache.overall_mshr_misses::total        13821                       # number of overall MSHR misses
system.cpu0.icache.demand_mshr_miss_latency::.cpu0.inst    380483000                       # number of demand (read+write) MSHR miss cycles
system.cpu0.icache.demand_mshr_miss_latency::total    380483000                       # number of demand (read+write) MSHR miss cycles
system.cpu0.icache.overall_mshr_miss_latency::.cpu0.inst    380483000                       # number of overall MSHR miss cycles
system.cpu0.icache.overall_mshr_miss_latency::total    380483000                       # number of overall MSHR miss cycles
system.cpu0.icache.demand_mshr_miss_rate::.cpu0.inst     0.005657                       # mshr miss rate for demand accesses
system.cpu0.icache.demand_mshr_miss_rate::total     0.005657                       # mshr miss rate for demand accesses
system.cpu0.icache.overall_mshr_miss_rate::.cpu0.inst     0.005657                       # mshr miss rate for overall accesses
system.cpu0.icache.overall_mshr_miss_rate::total     0.005657                       # mshr miss rate for overall accesses
system.cpu0.icache.demand_avg_mshr_miss_latency::.cpu0.inst 27529.339411                       # average overall mshr miss latency
system.cpu0.icache.demand_avg_mshr_miss_latency::total 27529.339411                       # average overall mshr miss latency
system.cpu0.icache.overall_avg_mshr_miss_latency::.cpu0.inst 27529.339411                       # average overall mshr miss latency
system.cpu0.icache.overall_avg_mshr_miss_latency::total 27529.339411                       # average overall mshr miss latency
system.cpu0.icache.replacements                 13805                       # number of replacements
system.cpu0.icache.ReadReq_hits::.cpu0.inst      2429364                       # number of ReadReq hits
system.cpu0.icache.ReadReq_hits::total        2429364                       # number of ReadReq hits
system.cpu0.icache.ReadReq_misses::.cpu0.inst        13821                       # number of ReadReq misses
system.cpu0.icache.ReadReq_misses::total        13821                       # number of ReadReq misses
system.cpu0.icache.ReadReq_miss_latency::.cpu0.inst    394304000                       # number of ReadReq miss cycles
system.cpu0.icache.ReadReq_miss_latency::total    394304000                       # number of ReadReq miss cycles
system.cpu0.icache.ReadReq_accesses::.cpu0.inst      2443185                       # number of ReadReq accesses(hits+misses)
system.cpu0.icache.ReadReq_accesses::total      2443185                       # number of ReadReq accesses(hits+misses)
system.cpu0.icache.ReadReq_miss_rate::.cpu0.inst     0.005657                       # miss rate for ReadReq accesses
system.cpu0.icache.ReadReq_miss_rate::total     0.005657                       # miss rate for ReadReq accesses
system.cpu0.icache.ReadReq_avg_miss_latency::.cpu0.inst 28529.339411                       # average ReadReq miss latency
system.cpu0.icache.ReadReq_avg_miss_latency::total 28529.339411                       # average ReadReq miss latency
system.cpu0.icache.ReadReq_mshr_misses::.cpu0.inst        13821                       # number of ReadReq MSHR misses
system.cpu0.icache.ReadReq_mshr_misses::total        13821                       # number of ReadReq MSHR misses
system.cpu0.icache.ReadReq_mshr_miss_latency::.cpu0.inst    380483000                       # number of ReadReq MSHR miss cycles
system.cpu0.icache.ReadReq_mshr_miss_latency::total    380483000                       # number of ReadReq MSHR miss cycles
system.cpu0.icache.ReadReq_mshr_miss_rate::.cpu0.inst     0.005657                       # mshr miss rate for ReadReq accesses
system.cpu0.icache.ReadReq_mshr_miss_rate::total     0.005657                       # mshr miss rate for ReadReq accesses
system.cpu0.icache.ReadReq_avg_mshr_miss_latency::.cpu0.inst 27529.339411                       # average ReadReq mshr miss latency
system.cpu0.icache.ReadReq_avg_mshr_miss_latency::total 27529.339411                       # average ReadReq mshr miss latency
system.cpu0.icache.power_state.pwrStateResidencyTicks::UNDEFINED  14153584000                       # Cumulative time (in ticks) in various power states
system.cpu0.icache.tags.tagsinuse           15.999042                       # Cycle average of tags in use
system.cpu0.icache.tags.total_refs            2443185                       # Total number of references to valid blocks.
system.cpu0.icache.tags.sampled_refs            13821                       # Sample count of references to valid blocks.
system.cpu0.icache.tags.avg_refs           176.773388                       # Average number of references to valid blocks.
system.cpu0.icache.tags.warmup_cycle            87500                       # Cycle when the warmup percentage was hit.
system.cpu0.icache.tags.occ_blocks::.cpu0.inst    15.999042                       # Average occupied blocks per requestor
system.cpu0.icache.tags.occ_percent::.cpu0.inst     0.999940                       # Average percentage of cache occupancy
system.cpu0.icache.tags.occ_percent::total     0.999940                       # Average percentage of cache occupancy
system.cpu0.icache.tags.occ_task_id_blocks::1024           16                       # Occupied blocks per task id
system.cpu0.icache.tags.age_task_id_blocks_1024::1           16                       # Occupied blocks per task id
system.cpu0.icache.tags.occ_task_id_percent::1024            1                       # Percentage of cache occupancy per task id
system.cpu0.icache.tags.tag_accesses         19559301                       # Number of tag accesses
system.cpu0.icache.tags.data_accesses        19559301                       # Number of data accesses
system.cpu0.icache.tags.power_state.pwrStateResidencyTicks::UNDEFINED  14153584000                       # Cumulative time (in ticks) in various power states
system.cpu0.dtb.walker.power_state.pwrStateResidencyTicks::UNDEFINED  14153584000                       # Cumulative time (in ticks) in various power states
system.cpu0.interrupts.clk_domain.clock          8000                       # Clock period in ticks
system.cpu0.itb_walker_cache.blocked_cycles::no_mshrs            0                       # number of cycles access was blocked
system.cpu0.itb_walker_cache.blocked_cycles::no_targets            0                       # number of cycles access was blocked
system.cpu0.itb_walker_cache.blocked::no_mshrs            0                       # number of cycles access was blocked
system.cpu0.itb_walker_cache.blocked::no_targets            0                       # number of cycles access was blocked
system.cpu0.itb_walker_cache.avg_blocked_cycles::no_mshrs          nan                       # average number of cycles each access was blocked
system.cpu0.itb_walker_cache.avg_blocked_cycles::no_targets          nan                       # average number of cycles each access was blocked
system.cpu0.itb_walker_cache.replacements            0                       # number of replacements
system.cpu0.itb_walker_cache.power_state.pwrStateResidencyTicks::UNDEFINED  14153584000                       # Cumulative time (in ticks) in various power states
system.cpu0.itb_walker_cache.tags.tagsinuse            0                       # Cycle average of tags in use
system.cpu0.itb_walker_cache.tags.total_refs            0                       # Total number of references to valid blocks.
system.cpu0.itb_walker_cache.tags.sampled_refs            0                       # Sample count of references to valid blocks.
system.cpu0.itb_walker_cache.tags.avg_refs          nan                       # Average number of references to valid blocks.
system.cpu0.itb_walker_cache.tags.warmup_cycle            0                       # Cycle when the warmup percentage was hit.
system.cpu0.itb_walker_cache.tags.tag_accesses            0                       # Number of tag accesses
system.cpu0.itb_walker_cache.tags.data_accesses            0                       # Number of data accesses
system.cpu0.itb_walker_cache.tags.power_state.pwrStateResidencyTicks::UNDEFINED  14153584000                       # Cumulative time (in ticks) in various power states
system.cpu0.dtb_walker_cache.blocked_cycles::no_mshrs            0                       # number of cycles access was blocked
system.cpu0.dtb_walker_cache.blocked_cycles::no_targets            0                       # number of cycles access was blocked
system.cpu0.dtb_walker_cache.blocked::no_mshrs            0                       # number of cycles access was blocked
system.cpu0.dtb_walker_cache.blocked::no_targets            0                       # number of cycles access was blocked
system.cpu0.dtb_walker_cache.avg_blocked_cycles::no_mshrs          nan                       # average number of cycles each access was blocked
system.cpu0.dtb_walker_cache.avg_blocked_cycles::no_targets          nan                       # average number of cycles each access was blocked
system.cpu0.dtb_walker_cache.replacements            0                       # number of replacements
system.cpu0.dtb_walker_cache.power_state.pwrStateResidencyTicks::UNDEFINED  14153584000                       # Cumulative time (in ticks) in various power states
system.cpu0.dtb_walker_cache.tags.tagsinuse            0                       # Cycle average of tags in use
system.cpu0.dtb_walker_cache.tags.total_refs            0                       # Total number of references to valid blocks.
system.cpu0.dtb_walker_cache.tags.sampled_refs            0                       # Sample count of references to valid blocks.
system.cpu0.dtb_walker_cache.tags.avg_refs          nan                       # Average number of references to valid blocks.
system.cpu0.dtb_walker_cache.tags.warmup_cycle            0                       # Cycle when the warmup percentage was hit.
system.cpu0.dtb_walker_cache.tags.tag_accesses            0                       # Number of tag accesses
system.cpu0.dtb_walker_cache.tags.data_accesses            0                       # Number of data accesses
system.cpu0.dtb_walker_cache.tags.power_state.pwrStateResidencyTicks::UNDEFINED  14153584000                       # Cumulative time (in ticks) in various power states
system.cpu0.dcache.demand_hits::.cpu0.data      5861261                       # number of demand (read+write) hits
system.cpu0.dcache.demand_hits::total         5861261                       # number of demand (read+write) hits
system.cpu0.dcache.overall_hits::.cpu0.data      5862040                       # number of overall hits
system.cpu0.dcache.overall_hits::total        5862040                       # number of overall hits
system.cpu0.dcache.demand_misses::.cpu0.data       226679                       # number of demand (read+write) misses
system.cpu0.dcache.demand_misses::total        226679                       # number of demand (read+write) misses
system.cpu0.dcache.overall_misses::.cpu0.data       233291                       # number of overall misses
system.cpu0.dcache.overall_misses::total       233291                       # number of overall misses
system.cpu0.dcache.demand_miss_latency::.cpu0.data   4233525975                       # number of demand (read+write) miss cycles
system.cpu0.dcache.demand_miss_latency::total   4233525975                       # number of demand (read+write) miss cycles
system.cpu0.dcache.overall_miss_latency::.cpu0.data   4233525975                       # number of overall miss cycles
system.cpu0.dcache.overall_miss_latency::total   4233525975                       # number of overall miss cycles
system.cpu0.dcache.demand_accesses::.cpu0.data      6087940                       # number of demand (read+write) accesses
system.cpu0.dcache.demand_accesses::total      6087940                       # number of demand (read+write) accesses
system.cpu0.dcache.overall_accesses::.cpu0.data      6095331                       # number of overall (read+write) accesses
system.cpu0.dcache.overall_accesses::total      6095331                       # number of overall (read+write) accesses
system.cpu0.dcache.demand_miss_rate::.cpu0.data     0.037234                       # miss rate for demand accesses
system.cpu0.dcache.demand_miss_rate::total     0.037234                       # miss rate for demand accesses
system.cpu0.dcache.overall_miss_rate::.cpu0.data     0.038274                       # miss rate for overall accesses
system.cpu0.dcache.overall_miss_rate::total     0.038274                       # miss rate for overall accesses
system.cpu0.dcache.demand_avg_miss_latency::.cpu0.data 18676.304267                       # average overall miss latency
system.cpu0.dcache.demand_avg_miss_latency::total 18676.304267                       # average overall miss latency
system.cpu0.dcache.overall_avg_miss_latency::.cpu0.data 18146.975130                       # average overall miss latency
system.cpu0.dcache.overall_avg_miss_latency::total 18146.975130                       # average overall miss latency
system.cpu0.dcache.blocked_cycles::no_mshrs         5060                       # number of cycles access was blocked
system.cpu0.dcache.blocked_cycles::no_targets            0                       # number of cycles access was blocked
system.cpu0.dcache.blocked::no_mshrs              103                       # number of cycles access was blocked
system.cpu0.dcache.blocked::no_targets              0                       # number of cycles access was blocked
system.cpu0.dcache.avg_blocked_cycles::no_mshrs    49.126214                       # average number of cycles each access was blocked
system.cpu0.dcache.avg_blocked_cycles::no_targets          nan                       # average number of cycles each access was blocked
system.cpu0.dcache.writebacks::.writebacks        60514                       # number of writebacks
system.cpu0.dcache.writebacks::total            60514                       # number of writebacks
system.cpu0.dcache.demand_mshr_hits::.cpu0.data         9048                       # number of demand (read+write) MSHR hits
system.cpu0.dcache.demand_mshr_hits::total         9048                       # number of demand (read+write) MSHR hits
system.cpu0.dcache.overall_mshr_hits::.cpu0.data         9048                       # number of overall MSHR hits
system.cpu0.dcache.overall_mshr_hits::total         9048                       # number of overall MSHR hits
system.cpu0.dcache.demand_mshr_misses::.cpu0.data       217631                       # number of demand (read+write) MSHR misses
system.cpu0.dcache.demand_mshr_misses::total       217631                       # number of demand (read+write) MSHR misses
system.cpu0.dcache.overall_mshr_misses::.cpu0.data       221374                       # number of overall MSHR misses
system.cpu0.dcache.overall_mshr_misses::total       221374                       # number of overall MSHR misses
system.cpu0.dcache.demand_mshr_miss_latency::.cpu0.data   3718233500                       # number of demand (read+write) MSHR miss cycles
system.cpu0.dcache.demand_mshr_miss_latency::total   3718233500                       # number of demand (read+write) MSHR miss cycles
system.cpu0.dcache.overall_mshr_miss_latency::.cpu0.data   4057935500                       # number of overall MSHR miss cycles
system.cpu0.dcache.overall_mshr_miss_latency::total   4057935500                       # number of overall MSHR miss cycles
system.cpu0.dcache.demand_mshr_miss_rate::.cpu0.data     0.035748                       # mshr miss rate for demand accesses
system.cpu0.dcache.demand_mshr_miss_rate::total     0.035748                       # mshr miss rate for demand accesses
system.cpu0.dcache.overall_mshr_miss_rate::.cpu0.data     0.036319                       # mshr miss rate for overall accesses
system.cpu0.dcache.overall_mshr_miss_rate::total     0.036319                       # mshr miss rate for overall accesses
system.cpu0.dcache.demand_avg_mshr_miss_latency::.cpu0.data 17085.036139                       # average overall mshr miss latency
system.cpu0.dcache.demand_avg_mshr_miss_latency::total 17085.036139                       # average overall mshr miss latency
system.cpu0.dcache.overall_avg_mshr_miss_latency::.cpu0.data 18330.677948                       # average overall mshr miss latency
system.cpu0.dcache.overall_avg_mshr_miss_latency::total 18330.677948                       # average overall mshr miss latency
system.cpu0.dcache.replacements                221358                       # number of replacements
system.cpu0.dcache.ReadReq_hits::.cpu0.data      3983018                       # number of ReadReq hits
system.cpu0.dcache.ReadReq_hits::total        3983018                       # number of ReadReq hits
system.cpu0.dcache.ReadReq_misses::.cpu0.data       163233                       # number of ReadReq misses
system.cpu0.dcache.ReadReq_misses::total       163233                       # number of ReadReq misses
system.cpu0.dcache.ReadReq_miss_latency::.cpu0.data   2481007499                       # number of ReadReq miss cycles
system.cpu0.dcache.ReadReq_miss_latency::total   2481007499                       # number of ReadReq miss cycles
system.cpu0.dcache.ReadReq_accesses::.cpu0.data      4146251                       # number of ReadReq accesses(hits+misses)
system.cpu0.dcache.ReadReq_accesses::total      4146251                       # number of ReadReq accesses(hits+misses)
system.cpu0.dcache.ReadReq_miss_rate::.cpu0.data     0.039369                       # miss rate for ReadReq accesses
system.cpu0.dcache.ReadReq_miss_rate::total     0.039369                       # miss rate for ReadReq accesses
system.cpu0.dcache.ReadReq_avg_miss_latency::.cpu0.data 15199.178469                       # average ReadReq miss latency
system.cpu0.dcache.ReadReq_avg_miss_latency::total 15199.178469                       # average ReadReq miss latency
system.cpu0.dcache.ReadReq_mshr_hits::.cpu0.data          602                       # number of ReadReq MSHR hits
system.cpu0.dcache.ReadReq_mshr_hits::total          602                       # number of ReadReq MSHR hits
system.cpu0.dcache.ReadReq_mshr_misses::.cpu0.data       162631                       # number of ReadReq MSHR misses
system.cpu0.dcache.ReadReq_mshr_misses::total       162631                       # number of ReadReq MSHR misses
system.cpu0.dcache.ReadReq_mshr_miss_latency::.cpu0.data   2286490500                       # number of ReadReq MSHR miss cycles
system.cpu0.dcache.ReadReq_mshr_miss_latency::total   2286490500                       # number of ReadReq MSHR miss cycles
system.cpu0.dcache.ReadReq_mshr_miss_rate::.cpu0.data     0.039224                       # mshr miss rate for ReadReq accesses
system.cpu0.dcache.ReadReq_mshr_miss_rate::total     0.039224                       # mshr miss rate for ReadReq accesses
system.cpu0.dcache.ReadReq_avg_mshr_miss_latency::.cpu0.data 14059.376749                       # average ReadReq mshr miss latency
system.cpu0.dcache.ReadReq_avg_mshr_miss_latency::total 14059.376749                       # average ReadReq mshr miss latency
system.cpu0.dcache.WriteReq_hits::.cpu0.data      1878243                       # number of WriteReq hits
system.cpu0.dcache.WriteReq_hits::total       1878243                       # number of WriteReq hits
system.cpu0.dcache.WriteReq_misses::.cpu0.data        63446                       # number of WriteReq misses
system.cpu0.dcache.WriteReq_misses::total        63446                       # number of WriteReq misses
system.cpu0.dcache.WriteReq_miss_latency::.cpu0.data   1752518476                       # number of WriteReq miss cycles
system.cpu0.dcache.WriteReq_miss_latency::total   1752518476                       # number of WriteReq miss cycles
system.cpu0.dcache.WriteReq_accesses::.cpu0.data      1941689                       # number of WriteReq accesses(hits+misses)
system.cpu0.dcache.WriteReq_accesses::total      1941689                       # number of WriteReq accesses(hits+misses)
system.cpu0.dcache.WriteReq_miss_rate::.cpu0.data     0.032676                       # miss rate for WriteReq accesses
system.cpu0.dcache.WriteReq_miss_rate::total     0.032676                       # miss rate for WriteReq accesses
system.cpu0.dcache.WriteReq_avg_miss_latency::.cpu0.data 27622.205907                       # average WriteReq miss latency
system.cpu0.dcache.WriteReq_avg_miss_latency::total 27622.205907                       # average WriteReq miss latency
system.cpu0.dcache.WriteReq_mshr_hits::.cpu0.data         8446                       # number of WriteReq MSHR hits
system.cpu0.dcache.WriteReq_mshr_hits::total         8446                       # number of WriteReq MSHR hits
system.cpu0.dcache.WriteReq_mshr_misses::.cpu0.data        55000                       # number of WriteReq MSHR misses
system.cpu0.dcache.WriteReq_mshr_misses::total        55000                       # number of WriteReq MSHR misses
system.cpu0.dcache.WriteReq_mshr_miss_latency::.cpu0.data   1431743000                       # number of WriteReq MSHR miss cycles
system.cpu0.dcache.WriteReq_mshr_miss_latency::total   1431743000                       # number of WriteReq MSHR miss cycles
system.cpu0.dcache.WriteReq_mshr_miss_rate::.cpu0.data     0.028326                       # mshr miss rate for WriteReq accesses
system.cpu0.dcache.WriteReq_mshr_miss_rate::total     0.028326                       # mshr miss rate for WriteReq accesses
system.cpu0.dcache.WriteReq_avg_mshr_miss_latency::.cpu0.data 26031.690909                       # average WriteReq mshr miss latency
system.cpu0.dcache.WriteReq_avg_mshr_miss_latency::total 26031.690909                       # average WriteReq mshr miss latency
system.cpu0.dcache.SoftPFReq_hits::.cpu0.data          779                       # number of SoftPFReq hits
system.cpu0.dcache.SoftPFReq_hits::total          779                       # number of SoftPFReq hits
system.cpu0.dcache.SoftPFReq_misses::.cpu0.data         6612                       # number of SoftPFReq misses
system.cpu0.dcache.SoftPFReq_misses::total         6612                       # number of SoftPFReq misses
system.cpu0.dcache.SoftPFReq_accesses::.cpu0.data         7391                       # number of SoftPFReq accesses(hits+misses)
system.cpu0.dcache.SoftPFReq_accesses::total         7391                       # number of SoftPFReq accesses(hits+misses)
system.cpu0.dcache.SoftPFReq_miss_rate::.cpu0.data     0.894602                       # miss rate for SoftPFReq accesses
system.cpu0.dcache.SoftPFReq_miss_rate::total     0.894602                       # miss rate for SoftPFReq accesses
system.cpu0.dcache.SoftPFReq_mshr_misses::.cpu0.data         3743                       # number of SoftPFReq MSHR misses
system.cpu0.dcache.SoftPFReq_mshr_misses::total         3743                       # number of SoftPFReq MSHR misses
system.cpu0.dcache.SoftPFReq_mshr_miss_latency::.cpu0.data    339702000                       # number of SoftPFReq MSHR miss cycles
system.cpu0.dcache.SoftPFReq_mshr_miss_latency::total    339702000                       # number of SoftPFReq MSHR miss cycles
system.cpu0.dcache.SoftPFReq_mshr_miss_rate::.cpu0.data     0.506427                       # mshr miss rate for SoftPFReq accesses
system.cpu0.dcache.SoftPFReq_mshr_miss_rate::total     0.506427                       # mshr miss rate for SoftPFReq accesses
system.cpu0.dcache.SoftPFReq_avg_mshr_miss_latency::.cpu0.data 90756.612343                       # average SoftPFReq mshr miss latency
system.cpu0.dcache.SoftPFReq_avg_mshr_miss_latency::total 90756.612343                       # average SoftPFReq mshr miss latency
system.cpu0.dcache.power_state.pwrStateResidencyTicks::UNDEFINED  14153584000                       # Cumulative time (in ticks) in various power states
system.cpu0.dcache.tags.tagsinuse           15.998959                       # Cycle average of tags in use
system.cpu0.dcache.tags.total_refs            6083414                       # Total number of references to valid blocks.
system.cpu0.dcache.tags.sampled_refs           221374                       # Sample count of references to valid blocks.
system.cpu0.dcache.tags.avg_refs            27.480255                       # Average number of references to valid blocks.
system.cpu0.dcache.tags.warmup_cycle           178500                       # Cycle when the warmup percentage was hit.
system.cpu0.dcache.tags.occ_blocks::.cpu0.data    15.998959                       # Average occupied blocks per requestor
system.cpu0.dcache.tags.occ_percent::.cpu0.data     0.999935                       # Average percentage of cache occupancy
system.cpu0.dcache.tags.occ_percent::total     0.999935                       # Average percentage of cache occupancy
system.cpu0.dcache.tags.occ_task_id_blocks::1024           16                       # Occupied blocks per task id
system.cpu0.dcache.tags.age_task_id_blocks_1024::0           12                       # Occupied blocks per task id
system.cpu0.dcache.tags.age_task_id_blocks_1024::1            4                       # Occupied blocks per task id
system.cpu0.dcache.tags.occ_task_id_percent::1024            1                       # Percentage of cache occupancy per task id
system.cpu0.dcache.tags.tag_accesses         48984022                       # Number of tag accesses
system.cpu0.dcache.tags.data_accesses        48984022                       # Number of data accesses
system.cpu0.dcache.tags.power_state.pwrStateResidencyTicks::UNDEFINED  14153584000                       # Cumulative time (in ticks) in various power states
system.cpu0.power_state.pwrStateResidencyTicks::ON  14153584000                       # Cumulative time (in ticks) in various power states
system.cpu0.itb.walker.power_state.pwrStateResidencyTicks::UNDEFINED  14153584000                       # Cumulative time (in ticks) in various power states
system.cpu1.icache.demand_hits::.cpu1.inst       584362                       # number of demand (read+write) hits
system.cpu1.icache.demand_hits::total          584362                       # number of demand (read+write) hits
system.cpu1.icache.overall_hits::.cpu1.inst       584362                       # number of overall hits
system.cpu1.icache.overall_hits::total         584362                       # number of overall hits
system.cpu1.icache.demand_misses::.cpu1.inst        11112                       # number of demand (read+write) misses
system.cpu1.icache.demand_misses::total         11112                       # number of demand (read+write) misses
system.cpu1.icache.overall_misses::.cpu1.inst        11112                       # number of overall misses
system.cpu1.icache.overall_misses::total        11112                       # number of overall misses
system.cpu1.icache.demand_miss_latency::.cpu1.inst    284534000                       # number of demand (read+write) miss cycles
system.cpu1.icache.demand_miss_latency::total    284534000                       # number of demand (read+write) miss cycles
system.cpu1.icache.overall_miss_latency::.cpu1.inst    284534000                       # number of overall miss cycles
system.cpu1.icache.overall_miss_latency::total    284534000                       # number of overall miss cycles
system.cpu1.icache.demand_accesses::.cpu1.inst       595474                       # number of demand (read+write) accesses
system.cpu1.icache.demand_accesses::total       595474                       # number of demand (read+write) accesses
system.cpu1.icache.overall_accesses::.cpu1.inst       595474                       # number of overall (read+write) accesses
system.cpu1.icache.overall_accesses::total       595474                       # number of overall (read+write) accesses
system.cpu1.icache.demand_miss_rate::.cpu1.inst     0.018661                       # miss rate for demand accesses
system.cpu1.icache.demand_miss_rate::total     0.018661                       # miss rate for demand accesses
system.cpu1.icache.overall_miss_rate::.cpu1.inst     0.018661                       # miss rate for overall accesses
system.cpu1.icache.overall_miss_rate::total     0.018661                       # miss rate for overall accesses
system.cpu1.icache.demand_avg_miss_latency::.cpu1.inst 25606.011519                       # average overall miss latency
system.cpu1.icache.demand_avg_miss_latency::total 25606.011519                       # average overall miss latency
system.cpu1.icache.overall_avg_miss_latency::.cpu1.inst 25606.011519                       # average overall miss latency
system.cpu1.icache.overall_avg_miss_latency::total 25606.011519                       # average overall miss latency
system.cpu1.icache.blocked_cycles::no_mshrs            0                       # number of cycles access was blocked
system.cpu1.icache.blocked_cycles::no_targets            0                       # number of cycles access was blocked
system.cpu1.icache.blocked::no_mshrs                0                       # number of cycles access was blocked
system.cpu1.icache.blocked::no_targets              0                       # number of cycles access was blocked
system.cpu1.icache.avg_blocked_cycles::no_mshrs          nan                       # average number of cycles each access was blocked
system.cpu1.icache.avg_blocked_cycles::no_targets          nan                       # average number of cycles each access was blocked
system.cpu1.icache.writebacks::.writebacks        11096                       # number of writebacks
system.cpu1.icache.writebacks::total            11096                       # number of writebacks
system.cpu1.icache.demand_mshr_misses::.cpu1.inst        11112                       # number of demand (read+write) MSHR misses
system.cpu1.icache.demand_mshr_misses::total        11112                       # number of demand (read+write) MSHR misses
system.cpu1.icache.overall_mshr_misses::.cpu1.inst        11112                       # number of overall MSHR misses
system.cpu1.icache.overall_mshr_misses::total        11112                       # number of overall MSHR misses
system.cpu1.icache.demand_mshr_miss_latency::.cpu1.inst    273422000                       # number of demand (read+write) MSHR miss cycles
system.cpu1.icache.demand_mshr_miss_latency::total    273422000                       # number of demand (read+write) MSHR miss cycles
system.cpu1.icache.overall_mshr_miss_latency::.cpu1.inst    273422000                       # number of overall MSHR miss cycles
system.cpu1.icache.overall_mshr_miss_latency::total    273422000                       # number of overall MSHR miss cycles
system.cpu1.icache.demand_mshr_miss_rate::.cpu1.inst     0.018661                       # mshr miss rate for demand accesses
system.cpu1.icache.demand_mshr_miss_rate::total     0.018661                       # mshr miss rate for demand accesses
system.cpu1.icache.overall_mshr_miss_rate::.cpu1.inst     0.018661                       # mshr miss rate for overall accesses
system.cpu1.icache.overall_mshr_miss_rate::total     0.018661                       # mshr miss rate for overall accesses
system.cpu1.icache.demand_avg_mshr_miss_latency::.cpu1.inst 24606.011519                       # average overall mshr miss latency
system.cpu1.icache.demand_avg_mshr_miss_latency::total 24606.011519                       # average overall mshr miss latency
system.cpu1.icache.overall_avg_mshr_miss_latency::.cpu1.inst 24606.011519                       # average overall mshr miss latency
system.cpu1.icache.overall_avg_mshr_miss_latency::total 24606.011519                       # average overall mshr miss latency
system.cpu1.icache.replacements                 11096                       # number of replacements
system.cpu1.icache.ReadReq_hits::.cpu1.inst       584362                       # number of ReadReq hits
system.cpu1.icache.ReadReq_hits::total         584362                       # number of ReadReq hits
system.cpu1.icache.ReadReq_misses::.cpu1.inst        11112                       # number of ReadReq misses
system.cpu1.icache.ReadReq_misses::total        11112                       # number of ReadReq misses
system.cpu1.icache.ReadReq_miss_latency::.cpu1.inst    284534000                       # number of ReadReq miss cycles
system.cpu1.icache.ReadReq_miss_latency::total    284534000                       # number of ReadReq miss cycles
system.cpu1.icache.ReadReq_accesses::.cpu1.inst       595474                       # number of ReadReq accesses(hits+misses)
system.cpu1.icache.ReadReq_accesses::total       595474                       # number of ReadReq accesses(hits+misses)
system.cpu1.icache.ReadReq_miss_rate::.cpu1.inst     0.018661                       # miss rate for ReadReq accesses
system.cpu1.icache.ReadReq_miss_rate::total     0.018661                       # miss rate for ReadReq accesses
system.cpu1.icache.ReadReq_avg_miss_latency::.cpu1.inst 25606.011519                       # average ReadReq miss latency
system.cpu1.icache.ReadReq_avg_miss_latency::total 25606.011519                       # average ReadReq miss latency
system.cpu1.icache.ReadReq_mshr_misses::.cpu1.inst        11112                       # number of ReadReq MSHR misses
system.cpu1.icache.ReadReq_mshr_misses::total        11112                       # number of ReadReq MSHR misses
system.cpu1.icache.ReadReq_mshr_miss_latency::.cpu1.inst    273422000                       # number of ReadReq MSHR miss cycles
system.cpu1.icache.ReadReq_mshr_miss_latency::total    273422000                       # number of ReadReq MSHR miss cycles
system.cpu1.icache.ReadReq_mshr_miss_rate::.cpu1.inst     0.018661                       # mshr miss rate for ReadReq accesses
system.cpu1.icache.ReadReq_mshr_miss_rate::total     0.018661                       # mshr miss rate for ReadReq accesses
system.cpu1.icache.ReadReq_avg_mshr_miss_latency::.cpu1.inst 24606.011519                       # average ReadReq mshr miss latency
system.cpu1.icache.ReadReq_avg_mshr_miss_latency::total 24606.011519                       # average ReadReq mshr miss latency
system.cpu1.icache.power_state.pwrStateResidencyTicks::UNDEFINED  14153584000                       # Cumulative time (in ticks) in various power states
system.cpu1.icache.tags.tagsinuse           15.999006                       # Cycle average of tags in use
system.cpu1.icache.tags.total_refs             595474                       # Total number of references to valid blocks.
system.cpu1.icache.tags.sampled_refs            11112                       # Sample count of references to valid blocks.
system.cpu1.icache.tags.avg_refs            53.588373                       # Average number of references to valid blocks.
system.cpu1.icache.tags.warmup_cycle            94500                       # Cycle when the warmup percentage was hit.
system.cpu1.icache.tags.occ_blocks::.cpu1.inst    15.999006                       # Average occupied blocks per requestor
system.cpu1.icache.tags.occ_percent::.cpu1.inst     0.999938                       # Average percentage of cache occupancy
system.cpu1.icache.tags.occ_percent::total     0.999938                       # Average percentage of cache occupancy
system.cpu1.icache.tags.occ_task_id_blocks::1024           16                       # Occupied blocks per task id
system.cpu1.icache.tags.age_task_id_blocks_1024::4           16                       # Occupied blocks per task id
system.cpu1.icache.tags.occ_task_id_percent::1024            1                       # Percentage of cache occupancy per task id
system.cpu1.icache.tags.tag_accesses          4774904                       # Number of tag accesses
system.cpu1.icache.tags.data_accesses         4774904                       # Number of data accesses
system.cpu1.icache.tags.power_state.pwrStateResidencyTicks::UNDEFINED  14153584000                       # Cumulative time (in ticks) in various power states
system.cpu1.dtb.walker.power_state.pwrStateResidencyTicks::UNDEFINED  14153584000                       # Cumulative time (in ticks) in various power states
system.cpu1.interrupts.clk_domain.clock          8000                       # Clock period in ticks
system.cpu1.itb_walker_cache.blocked_cycles::no_mshrs            0                       # number of cycles access was blocked
system.cpu1.itb_walker_cache.blocked_cycles::no_targets            0                       # number of cycles access was blocked
system.cpu1.itb_walker_cache.blocked::no_mshrs            0                       # number of cycles access was blocked
system.cpu1.itb_walker_cache.blocked::no_targets            0                       # number of cycles access was blocked
system.cpu1.itb_walker_cache.avg_blocked_cycles::no_mshrs          nan                       # average number of cycles each access was blocked
system.cpu1.itb_walker_cache.avg_blocked_cycles::no_targets          nan                       # average number of cycles each access was blocked
system.cpu1.itb_walker_cache.replacements            0                       # number of replacements
system.cpu1.itb_walker_cache.power_state.pwrStateResidencyTicks::UNDEFINED  14153584000                       # Cumulative time (in ticks) in various power states
system.cpu1.itb_walker_cache.tags.tagsinuse            0                       # Cycle average of tags in use
system.cpu1.itb_walker_cache.tags.total_refs            0                       # Total number of references to valid blocks.
system.cpu1.itb_walker_cache.tags.sampled_refs            0                       # Sample count of references to valid blocks.
system.cpu1.itb_walker_cache.tags.avg_refs          nan                       # Average number of references to valid blocks.
system.cpu1.itb_walker_cache.tags.warmup_cycle            0                       # Cycle when the warmup percentage was hit.
system.cpu1.itb_walker_cache.tags.tag_accesses            0                       # Number of tag accesses
system.cpu1.itb_walker_cache.tags.data_accesses            0                       # Number of data accesses
system.cpu1.itb_walker_cache.tags.power_state.pwrStateResidencyTicks::UNDEFINED  14153584000                       # Cumulative time (in ticks) in various power states
system.cpu1.dtb_walker_cache.blocked_cycles::no_mshrs            0                       # number of cycles access was blocked
system.cpu1.dtb_walker_cache.blocked_cycles::no_targets            0                       # number of cycles access was blocked
system.cpu1.dtb_walker_cache.blocked::no_mshrs            0                       # number of cycles access was blocked
system.cpu1.dtb_walker_cache.blocked::no_targets            0                       # number of cycles access was blocked
system.cpu1.dtb_walker_cache.avg_blocked_cycles::no_mshrs          nan                       # average number of cycles each access was blocked
system.cpu1.dtb_walker_cache.avg_blocked_cycles::no_targets          nan                       # average number of cycles each access was blocked
system.cpu1.dtb_walker_cache.replacements            0                       # number of replacements
system.cpu1.dtb_walker_cache.power_state.pwrStateResidencyTicks::UNDEFINED  14153584000                       # Cumulative time (in ticks) in various power states
system.cpu1.dtb_walker_cache.tags.tagsinuse            0                       # Cycle average of tags in use
system.cpu1.dtb_walker_cache.tags.total_refs            0                       # Total number of references to valid blocks.
system.cpu1.dtb_walker_cache.tags.sampled_refs            0                       # Sample count of references to valid blocks.
system.cpu1.dtb_walker_cache.tags.avg_refs          nan                       # Average number of references to valid blocks.
system.cpu1.dtb_walker_cache.tags.warmup_cycle            0                       # Cycle when the warmup percentage was hit.
system.cpu1.dtb_walker_cache.tags.tag_accesses            0                       # Number of tag accesses
system.cpu1.dtb_walker_cache.tags.data_accesses            0                       # Number of data accesses
system.cpu1.dtb_walker_cache.tags.power_state.pwrStateResidencyTicks::UNDEFINED  14153584000                       # Cumulative time (in ticks) in various power states
system.cpu1.dcache.demand_hits::.cpu1.data      1774484                       # number of demand (read+write) hits
system.cpu1.dcache.demand_hits::total         1774484                       # number of demand (read+write) hits
system.cpu1.dcache.overall_hits::.cpu1.data      1774484                       # number of overall hits
system.cpu1.dcache.overall_hits::total        1774484                       # number of overall hits
system.cpu1.dcache.demand_misses::.cpu1.data       356863                       # number of demand (read+write) misses
system.cpu1.dcache.demand_misses::total        356863                       # number of demand (read+write) misses
system.cpu1.dcache.overall_misses::.cpu1.data       356863                       # number of overall misses
system.cpu1.dcache.overall_misses::total       356863                       # number of overall misses
system.cpu1.dcache.demand_miss_latency::.cpu1.data  23639689000                       # number of demand (read+write) miss cycles
system.cpu1.dcache.demand_miss_latency::total  23639689000                       # number of demand (read+write) miss cycles
system.cpu1.dcache.overall_miss_latency::.cpu1.data  23639689000                       # number of overall miss cycles
system.cpu1.dcache.overall_miss_latency::total  23639689000                       # number of overall miss cycles
system.cpu1.dcache.demand_accesses::.cpu1.data      2131347                       # number of demand (read+write) accesses
system.cpu1.dcache.demand_accesses::total      2131347                       # number of demand (read+write) accesses
system.cpu1.dcache.overall_accesses::.cpu1.data      2131347                       # number of overall (read+write) accesses
system.cpu1.dcache.overall_accesses::total      2131347                       # number of overall (read+write) accesses
system.cpu1.dcache.demand_miss_rate::.cpu1.data     0.167435                       # miss rate for demand accesses
system.cpu1.dcache.demand_miss_rate::total     0.167435                       # miss rate for demand accesses
system.cpu1.dcache.overall_miss_rate::.cpu1.data     0.167435                       # miss rate for overall accesses
system.cpu1.dcache.overall_miss_rate::total     0.167435                       # miss rate for overall accesses
system.cpu1.dcache.demand_avg_miss_latency::.cpu1.data 66243.037244                       # average overall miss latency
system.cpu1.dcache.demand_avg_miss_latency::total 66243.037244                       # average overall miss latency
system.cpu1.dcache.overall_avg_miss_latency::.cpu1.data 66243.037244                       # average overall miss latency
system.cpu1.dcache.overall_avg_miss_latency::total 66243.037244                       # average overall miss latency
system.cpu1.dcache.blocked_cycles::no_mshrs            0                       # number of cycles access was blocked
system.cpu1.dcache.blocked_cycles::no_targets            0                       # number of cycles access was blocked
system.cpu1.dcache.blocked::no_mshrs                0                       # number of cycles access was blocked
system.cpu1.dcache.blocked::no_targets              0                       # number of cycles access was blocked
system.cpu1.dcache.avg_blocked_cycles::no_mshrs          nan                       # average number of cycles each access was blocked
system.cpu1.dcache.avg_blocked_cycles::no_targets          nan                       # average number of cycles each access was blocked
system.cpu1.dcache.writebacks::.writebacks       219230                       # number of writebacks
system.cpu1.dcache.writebacks::total           219230                       # number of writebacks
system.cpu1.dcache.demand_mshr_hits::.cpu1.data       130455                       # number of demand (read+write) MSHR hits
system.cpu1.dcache.demand_mshr_hits::total       130455                       # number of demand (read+write) MSHR hits
system.cpu1.dcache.overall_mshr_hits::.cpu1.data       130455                       # number of overall MSHR hits
system.cpu1.dcache.overall_mshr_hits::total       130455                       # number of overall MSHR hits
system.cpu1.dcache.demand_mshr_misses::.cpu1.data       226408                       # number of demand (read+write) MSHR misses
system.cpu1.dcache.demand_mshr_misses::total       226408                       # number of demand (read+write) MSHR misses
system.cpu1.dcache.overall_mshr_misses::.cpu1.data       226408                       # number of overall MSHR misses
system.cpu1.dcache.overall_mshr_misses::total       226408                       # number of overall MSHR misses
system.cpu1.dcache.demand_mshr_miss_latency::.cpu1.data  18701151000                       # number of demand (read+write) MSHR miss cycles
system.cpu1.dcache.demand_mshr_miss_latency::total  18701151000                       # number of demand (read+write) MSHR miss cycles
system.cpu1.dcache.overall_mshr_miss_latency::.cpu1.data  18701151000                       # number of overall MSHR miss cycles
system.cpu1.dcache.overall_mshr_miss_latency::total  18701151000                       # number of overall MSHR miss cycles
system.cpu1.dcache.demand_mshr_miss_rate::.cpu1.data     0.106228                       # mshr miss rate for demand accesses
system.cpu1.dcache.demand_mshr_miss_rate::total     0.106228                       # mshr miss rate for demand accesses
system.cpu1.dcache.overall_mshr_miss_rate::.cpu1.data     0.106228                       # mshr miss rate for overall accesses
system.cpu1.dcache.overall_mshr_miss_rate::total     0.106228                       # mshr miss rate for overall accesses
system.cpu1.dcache.demand_avg_mshr_miss_latency::.cpu1.data 82599.338363                       # average overall mshr miss latency
system.cpu1.dcache.demand_avg_mshr_miss_latency::total 82599.338363                       # average overall mshr miss latency
system.cpu1.dcache.overall_avg_mshr_miss_latency::.cpu1.data 82599.338363                       # average overall mshr miss latency
system.cpu1.dcache.overall_avg_mshr_miss_latency::total 82599.338363                       # average overall mshr miss latency
system.cpu1.dcache.replacements                226390                       # number of replacements
system.cpu1.dcache.ReadReq_hits::.cpu1.data       386549                       # number of ReadReq hits
system.cpu1.dcache.ReadReq_hits::total         386549                       # number of ReadReq hits
system.cpu1.dcache.ReadReq_misses::.cpu1.data         9379                       # number of ReadReq misses
system.cpu1.dcache.ReadReq_misses::total         9379                       # number of ReadReq misses
system.cpu1.dcache.ReadReq_miss_latency::.cpu1.data    336088000                       # number of ReadReq miss cycles
system.cpu1.dcache.ReadReq_miss_latency::total    336088000                       # number of ReadReq miss cycles
system.cpu1.dcache.ReadReq_accesses::.cpu1.data       395928                       # number of ReadReq accesses(hits+misses)
system.cpu1.dcache.ReadReq_accesses::total       395928                       # number of ReadReq accesses(hits+misses)
system.cpu1.dcache.ReadReq_miss_rate::.cpu1.data     0.023689                       # miss rate for ReadReq accesses
system.cpu1.dcache.ReadReq_miss_rate::total     0.023689                       # miss rate for ReadReq accesses
system.cpu1.dcache.ReadReq_avg_miss_latency::.cpu1.data 35834.097452                       # average ReadReq miss latency
system.cpu1.dcache.ReadReq_avg_miss_latency::total 35834.097452                       # average ReadReq miss latency
system.cpu1.dcache.ReadReq_mshr_hits::.cpu1.data          334                       # number of ReadReq MSHR hits
[...]
system.mem_ctrls.bytesPerActivate::256-383         1414      3.58%     24.91% # Bytes accessed per row activation
system.mem_ctrls.bytesPerActivate::384-511         1151      2.91%     27.82% # Bytes accessed per row activation
system.mem_ctrls.bytesPerActivate::512-639         1403      3.55%     31.37% # Bytes accessed per row activation
system.mem_ctrls.bytesPerActivate::640-767          964      2.44%     33.81% # Bytes accessed per row activation
system.mem_ctrls.bytesPerActivate::768-895         1007      2.55%     36.36% # Bytes accessed per row activation
system.mem_ctrls.bytesPerActivate::896-1023         1076      2.72%     39.09% # Bytes accessed per row activation
system.mem_ctrls.bytesPerActivate::1024-1151        24057     60.91%    100.00% # Bytes accessed per row activation
system.mem_ctrls.bytesPerActivate::total        39494                       # Bytes accessed per row activation
system.mem_ctrls.rdPerTurnAround::samples        13934                       # Reads before turning the bus around for writes
system.mem_ctrls.rdPerTurnAround::mean      17.173102                       # Reads before turning the bus around for writes
system.mem_ctrls.rdPerTurnAround::gmean     16.653044                       # Reads before turning the bus around for writes
system.mem_ctrls.rdPerTurnAround::stdev     12.238545                       # Reads before turning the bus around for writes
system.mem_ctrls.rdPerTurnAround::0-31          13844     99.35%     99.35% # Reads before turning the bus around for writes
system.mem_ctrls.rdPerTurnAround::32-63            41      0.29%     99.65% # Reads before turning the bus around for writes
system.mem_ctrls.rdPerTurnAround::64-95            18      0.13%     99.78% # Reads before turning the bus around for writes
system.mem_ctrls.rdPerTurnAround::96-127           12      0.09%     99.86% # Reads before turning the bus around for writes
system.mem_ctrls.rdPerTurnAround::128-159            5      0.04%     99.90% # Reads before turning the bus around for writes
system.mem_ctrls.rdPerTurnAround::160-191            1      0.01%     99.91% # Reads before turning the bus around for writes
system.mem_ctrls.rdPerTurnAround::192-223            2      0.01%     99.92% # Reads before turning the bus around for writes
system.mem_ctrls.rdPerTurnAround::224-255            3      0.02%     99.94% # Reads before turning the bus around for writes
system.mem_ctrls.rdPerTurnAround::256-287            3      0.02%     99.96% # Reads before turning the bus around for writes
system.mem_ctrls.rdPerTurnAround::288-319            2      0.01%     99.98% # Reads before turning the bus around for writes
system.mem_ctrls.rdPerTurnAround::384-415            1      0.01%     99.99% # Reads before turning the bus around for writes
system.mem_ctrls.rdPerTurnAround::480-511            1      0.01%     99.99% # Reads before turning the bus around for writes
system.mem_ctrls.rdPerTurnAround::864-895            1      0.01%    100.00% # Reads before turning the bus around for writes
system.mem_ctrls.rdPerTurnAround::total         13934                       # Reads before turning the bus around for writes
system.mem_ctrls.wrPerTurnAround::samples        13934                       # Writes before turning the bus around for reads
system.mem_ctrls.wrPerTurnAround::mean      16.033946                       # Writes before turning the bus around for reads
system.mem_ctrls.wrPerTurnAround::gmean     16.031424                       # Writes before turning the bus around for reads
system.mem_ctrls.wrPerTurnAround::stdev      0.301548                       # Writes before turning the bus around for reads
system.mem_ctrls.wrPerTurnAround::16            13720     98.46%     98.46% # Writes before turning the bus around for reads
system.mem_ctrls.wrPerTurnAround::17               64      0.46%     98.92% # Writes before turning the bus around for reads
system.mem_ctrls.wrPerTurnAround::18               74      0.53%     99.45% # Writes before turning the bus around for reads
system.mem_ctrls.wrPerTurnAround::19               47      0.34%     99.79% # Writes before turning the bus around for reads
system.mem_ctrls.wrPerTurnAround::20               25      0.18%     99.97% # Writes before turning the bus around for reads
system.mem_ctrls.wrPerTurnAround::21                4      0.03%    100.00% # Writes before turning the bus around for reads
system.mem_ctrls.wrPerTurnAround::total         13934                       # Writes before turning the bus around for reads
system.mem_ctrls.bytesReadDRAM               15315392                       # Total number of bytes read from DRAM
system.mem_ctrls.bytesReadWrQ                    8448                       # Total number of bytes read from write queue
system.mem_ctrls.bytesWritten                14298688                       # Total number of bytes written to DRAM
system.mem_ctrls.bytesReadSys                15323840                       # Total read bytes from the system interface side
system.mem_ctrls.bytesWrittenSys             14300864                       # Total written bytes from the system interface side
system.mem_ctrls.avgRdBW                      1082.09                       # Average DRAM read bandwidth in MiByte/s
system.mem_ctrls.avgWrBW                      1010.25                       # Average achieved write bandwidth in MiByte/s
system.mem_ctrls.avgRdBWSys                   1082.68                       # Average system read bandwidth in MiByte/s
system.mem_ctrls.avgWrBWSys                   1010.41                       # Average system write bandwidth in MiByte/s
system.mem_ctrls.peakBW                      12800.00                       # Theoretical peak bandwidth in MiByte/s
system.mem_ctrls.busUtil                        16.35                       # Data bus utilization in percentage
system.mem_ctrls.busUtilRead                     8.45                       # Data bus utilization in percentage for reads
system.mem_ctrls.busUtilWrite                    7.89                       # Data bus utilization in percentage for writes
system.mem_ctrls.totGap                   14153567000                       # Total gap between requests
system.mem_ctrls.avgGap                      30576.79                       # Average gap between requests
system.mem_ctrls.masterReadBytes::.cpu0.inst       180928                       # Per-master bytes read from memory
system.mem_ctrls.masterReadBytes::.cpu0.data      1017216                       # Per-master bytes read from memory
system.mem_ctrls.masterReadBytes::.cpu1.inst       117952                       # Per-master bytes read from memory
system.mem_ctrls.masterReadBytes::.cpu1.data     13999296                       # Per-master bytes read from memory
system.mem_ctrls.masterWriteBytes::.writebacks     14298688                       # Per-master bytes write to memory
system.mem_ctrls.masterReadRate::.cpu0.inst 12783193.288710476831                       # Per-master bytes read from memory rate (Bytes/sec)
system.mem_ctrls.masterReadRate::.cpu0.data 71869852.893797069788                       # Per-master bytes read from memory rate (Bytes/sec)
system.mem_ctrls.masterReadRate::.cpu1.inst 8333719.572371209972                       # Per-master bytes read from memory rate (Bytes/sec)
system.mem_ctrls.masterReadRate::.cpu1.data 989099015.486112952232                       # Per-master bytes read from memory rate (Bytes/sec)
system.mem_ctrls.masterWriteRate::.writebacks 1010252102.930254220963                       # Per-master bytes write to memory rate (Bytes/sec)
system.mem_ctrls.masterReadAccesses::.cpu0.inst         2827                       # Per-master read serviced memory accesses
system.mem_ctrls.masterReadAccesses::.cpu0.data        16009                       # Per-master read serviced memory accesses
system.mem_ctrls.masterReadAccesses::.cpu1.inst         1843                       # Per-master read serviced memory accesses
system.mem_ctrls.masterReadAccesses::.cpu1.data       218756                       # Per-master read serviced memory accesses
system.mem_ctrls.masterWriteAccesses::.writebacks       223451                       # Per-master write serviced memory accesses
system.mem_ctrls.masterReadTotalLat::.cpu0.inst     94743250                       # Per-master read total memory access latency
system.mem_ctrls.masterReadTotalLat::.cpu0.data    599447000                       # Per-master read total memory access latency
system.mem_ctrls.masterReadTotalLat::.cpu1.inst     59902250                       # Per-master read total memory access latency
system.mem_ctrls.masterReadTotalLat::.cpu1.data   7078836750                       # Per-master read total memory access latency
system.mem_ctrls.masterWriteTotalLat::.writebacks 354127545750                       # Per-master write total memory access latency
system.mem_ctrls.masterReadAvgLat::.cpu0.inst     33513.71                       # Per-master read average memory access latency
system.mem_ctrls.masterReadAvgLat::.cpu0.data     37444.38                       # Per-master read average memory access latency
system.mem_ctrls.masterReadAvgLat::.cpu1.inst     32502.58                       # Per-master read average memory access latency
system.mem_ctrls.masterReadAvgLat::.cpu1.data     32359.51                       # Per-master read average memory access latency
system.mem_ctrls.masterWriteAvgLat::.writebacks   1584810.74                       # Per-master write average memory access latency
system.mem_ctrls.pageHitRate                    91.46                       # Row buffer hit rate, read and write combined
system.mem_ctrls.rank1.actEnergy            140329560                       # Energy for activate commands per rank (pJ)
system.mem_ctrls.rank1.preEnergy             74571750                       # Energy for precharge commands per rank (pJ)
system.mem_ctrls.rank1.readEnergy           852551700                       # Energy for read commands per rank (pJ)
system.mem_ctrls.rank1.writeEnergy          583914420                       # Energy for write commands per rank (pJ)
system.mem_ctrls.rank1.refreshEnergy     1116800880.000000                       # Energy for refresh commands per rank (pJ)
system.mem_ctrls.rank1.actBackEnergy       5569594830                       # Energy for active background per rank (pJ)
system.mem_ctrls.rank1.preBackEnergy        744791520                       # Energy for precharge background per rank (pJ)
system.mem_ctrls.rank1.actPowerDownEnergy            0                       # Energy for active power-down per rank (pJ)
system.mem_ctrls.rank1.prePowerDownEnergy            0                       # Energy for precharge power-down per rank (pJ)
system.mem_ctrls.rank1.selfRefreshEnergy            0                       # Energy for self refresh per rank (pJ)
system.mem_ctrls.rank1.totalEnergy         9082554660                       # Total energy per rank (pJ)
system.mem_ctrls.rank1.averagePower        641.714117                       # Core power per rank (mW)
system.mem_ctrls.rank1.totalIdleTime                0                       # Total Idle time Per DRAM Rank
system.mem_ctrls.rank1.memoryStateTime::IDLE   1851667000                       # Time in different power states
system.mem_ctrls.rank1.memoryStateTime::REF    472420000                       # Time in different power states
system.mem_ctrls.rank1.memoryStateTime::SREF            0                       # Time in different power states
system.mem_ctrls.rank1.memoryStateTime::PRE_PDN            0                       # Time in different power states
system.mem_ctrls.rank1.memoryStateTime::ACT  11829497000                       # Time in different power states
system.mem_ctrls.rank1.memoryStateTime::ACT_PDN            0                       # Time in different power states
system.mem_ctrls.rank0.actEnergy            141700440                       # Energy for activate commands per rank (pJ)
system.mem_ctrls.rank0.preEnergy             75307980                       # Energy for precharge commands per rank (pJ)
system.mem_ctrls.rank0.readEnergy           856071720                       # Energy for read commands per rank (pJ)
system.mem_ctrls.rank0.writeEnergy          582322320                       # Energy for write commands per rank (pJ)
system.mem_ctrls.rank0.refreshEnergy     1116800880.000000                       # Energy for refresh commands per rank (pJ)
system.mem_ctrls.rank0.actBackEnergy       5537329410                       # Energy for active background per rank (pJ)
system.mem_ctrls.rank0.preBackEnergy        771962400                       # Energy for precharge background per rank (pJ)
system.mem_ctrls.rank0.actPowerDownEnergy            0                       # Energy for active power-down per rank (pJ)
system.mem_ctrls.rank0.prePowerDownEnergy            0                       # Energy for precharge power-down per rank (pJ)
system.mem_ctrls.rank0.selfRefreshEnergy            0                       # Energy for self refresh per rank (pJ)
system.mem_ctrls.rank0.totalEnergy         9081495150                       # Total energy per rank (pJ)
system.mem_ctrls.rank0.averagePower        641.639259                       # Core power per rank (mW)
system.mem_ctrls.rank0.totalIdleTime                0                       # Total Idle time Per DRAM Rank
system.mem_ctrls.rank0.memoryStateTime::IDLE   1921180500                       # Time in different power states
system.mem_ctrls.rank0.memoryStateTime::REF    472420000                       # Time in different power states
system.mem_ctrls.rank0.memoryStateTime::SREF            0                       # Time in different power states
system.mem_ctrls.rank0.memoryStateTime::PRE_PDN            0                       # Time in different power states
system.mem_ctrls.rank0.memoryStateTime::ACT  11759983500                       # Time in different power states
system.mem_ctrls.rank0.memoryStateTime::ACT_PDN            0                       # Time in different power states
system.mem_ctrls.power_state.pwrStateResidencyTicks::UNDEFINED  14153584000                       # Cumulative time (in ticks) in various power states
system.cpu_clk_domain.clock                       500                       # Clock period in ticks
system.tol2bus.trans_dist::ReadResp            200352                       # Transaction distribution
system.tol2bus.trans_dist::WritebackDirty       503195                       # Transaction distribution
system.tol2bus.trans_dist::WritebackClean        24901                       # Transaction distribution
system.tol2bus.trans_dist::CleanEvict          183160                       # Transaction distribution
system.tol2bus.trans_dist::ReadExReq           272363                       # Transaction distribution
system.tol2bus.trans_dist::ReadExResp          272361                       # Transaction distribution
system.tol2bus.trans_dist::ReadCleanReq         24933                       # Transaction distribution
system.tol2bus.trans_dist::ReadSharedReq       175419                       # Transaction distribution
system.tol2bus.pkt_count_system.cpu0.icache.mem_side::system.l2.cpu_side        41447                       # Packet count per connected master and slave (bytes)
system.tol2bus.pkt_count_system.cpu0.dcache.mem_side::system.l2.cpu_side       664106                       # Packet count per connected master and slave (bytes)
system.tol2bus.pkt_count_system.cpu1.icache.mem_side::system.l2.cpu_side        33320                       # Packet count per connected master and slave (bytes)
system.tol2bus.pkt_count_system.cpu1.dcache.mem_side::system.l2.cpu_side       679204                       # Packet count per connected master and slave (bytes)
system.tol2bus.pkt_count::total               1418077                       # Packet count per connected master and slave (bytes)
system.tol2bus.pkt_size_system.cpu0.icache.mem_side::system.l2.cpu_side      1768064                       # Cumulative packet size per connected master and slave (bytes)
system.tol2bus.pkt_size_system.cpu0.dcache.mem_side::system.l2.cpu_side     18040832                       # Cumulative packet size per connected master and slave (bytes)
system.tol2bus.pkt_size_system.cpu1.icache.mem_side::system.l2.cpu_side      1421312                       # Cumulative packet size per connected master and slave (bytes)
system.tol2bus.pkt_size_system.cpu1.dcache.mem_side::system.l2.cpu_side     28520704                       # Cumulative packet size per connected master and slave (bytes)
system.tol2bus.pkt_size::total               49750912                       # Cumulative packet size per connected master and slave (bytes)
system.tol2bus.snoops                          238607                       # Total snoops (count)
system.tol2bus.snoopTraffic                  14300864                       # Total snoop traffic (bytes)
system.tol2bus.snoop_fanout::samples           711322                       # Request fanout histogram
system.tol2bus.snoop_fanout::mean            0.000325                       # Request fanout histogram
system.tol2bus.snoop_fanout::stdev           0.018018                       # Request fanout histogram
system.tol2bus.snoop_fanout::underflows             0      0.00%      0.00% # Request fanout histogram
system.tol2bus.snoop_fanout::0                 711091     99.97%     99.97% # Request fanout histogram
system.tol2bus.snoop_fanout::1                    231      0.03%    100.00% # Request fanout histogram
system.tol2bus.snoop_fanout::2                      0      0.00%    100.00% # Request fanout histogram
system.tol2bus.snoop_fanout::3                      0      0.00%    100.00% # Request fanout histogram
system.tol2bus.snoop_fanout::4                      0      0.00%    100.00% # Request fanout histogram
system.tol2bus.snoop_fanout::5                      0      0.00%    100.00% # Request fanout histogram
system.tol2bus.snoop_fanout::6                      0      0.00%    100.00% # Request fanout histogram
system.tol2bus.snoop_fanout::7                      0      0.00%    100.00% # Request fanout histogram
system.tol2bus.snoop_fanout::8                      0      0.00%    100.00% # Request fanout histogram
system.tol2bus.snoop_fanout::overflows              0      0.00%    100.00% # Request fanout histogram
system.tol2bus.snoop_fanout::min_value              0                       # Request fanout histogram
system.tol2bus.snoop_fanout::max_value              1                       # Request fanout histogram
system.tol2bus.snoop_fanout::total             711322                       # Request fanout histogram
system.tol2bus.reqLayer0.occupancy          777327000                       # Layer occupancy (ticks)
system.tol2bus.reqLayer0.utilization              5.5                       # Layer utilization (%)
system.tol2bus.respLayer5.occupancy         340455304                       # Layer occupancy (ticks)
system.tol2bus.respLayer5.utilization             2.4                       # Layer utilization (%)
system.tol2bus.respLayer4.occupancy          16675485                       # Layer occupancy (ticks)
system.tol2bus.respLayer4.utilization             0.1                       # Layer utilization (%)
system.tol2bus.respLayer1.occupancy         332092436                       # Layer occupancy (ticks)
system.tol2bus.respLayer1.utilization             2.3                       # Layer utilization (%)
system.tol2bus.respLayer0.occupancy          20748965                       # Layer occupancy (ticks)
system.tol2bus.respLayer0.utilization             0.1                       # Layer utilization (%)
system.tol2bus.power_state.pwrStateResidencyTicks::UNDEFINED  14153584000                       # Cumulative time (in ticks) in various power states

---------- End Simulation Statistics   ----------
