
---------- Begin Simulation Statistics ----------
final_tick                                57876294500                       # Number of ticks from beginning of simulation (restored from checkpoints and never reset)
host_inst_rate                                 208716                       # Simulator instruction rate (inst/s)
host_mem_usage                                4436540                       # Number of bytes of host memory used
host_op_rate                                   346956                       # Simulator op (including micro ops) rate (op/s)
host_seconds                                    92.15                       # Real time elapsed on the host
host_tick_rate                              628040511                       # Simulator tick rate (ticks/s)
sim_freq                                 1000000000000                       # Frequency of simulated ticks
sim_insts                                    19233941                       # Number of instructions simulated
sim_ops                                      31973333                       # Number of ops (including micro ops) simulated
sim_seconds                                  0.057876                       # Number of seconds simulated
sim_ticks                                 57876294500                       # Number of ticks simulated
system.cpu0.branchPred.BTBCorrect                   0                       # Number of correct BTB predictions (this stat may not work properly.
system.cpu0.branchPred.BTBHitPct                  nan                       # BTB Hit Percentage
system.cpu0.branchPred.BTBHits                      0                       # Number of BTB hits
system.cpu0.branchPred.BTBLookups                   0                       # Number of BTB lookups
system.cpu0.branchPred.RASInCorrect                 0                       # Number of incorrect RAS predictions.
system.cpu0.branchPred.condIncorrect               38                       # Number of conditional branches incorrect
system.cpu0.branchPred.condPredicted               79                       # Number of conditional branches predicted
system.cpu0.branchPred.indirectHits                 0                       # Number of indirect target hits.
system.cpu0.branchPred.indirectLookups             24                       # Number of indirect predictor lookups.
system.cpu0.branchPred.indirectMisses              24                       # Number of indirect misses.
system.cpu0.branchPred.lookups                     79                       # Number of BP lookups
system.cpu0.branchPred.usedRAS                      0                       # Number of times the RAS was used to get a target.
system.cpu0.branchPredindirectMispredicted           15                       # Number of mispredicted indirect branches.
system.cpu0.committedInsts                    9233940                       # Number of instructions committed
system.cpu0.committedOps                     17463965                       # Number of ops (including micro ops) committed
system.cpu0.cpi                             12.535554                       # CPI: cycles per instruction
system.cpu0.discardedOps                      3227318                       # Number of ops (including micro ops) which were discarded before commit
system.cpu0.dtb.rdAccesses                    2312302                       # TLB accesses on read requests
system.cpu0.dtb.rdMisses                        30550                       # TLB misses on read requests
system.cpu0.dtb.wrAccesses                    1695662                       # TLB accesses on write requests
system.cpu0.dtb.wrMisses                         1164                       # TLB misses on write requests
system.cpu0.fetch2.amo_instructions                 0                       # Number of memory atomic instructions successfully decoded
system.cpu0.fetch2.fp_instructions                  0                       # Number of floating point instructions successfully decoded
system.cpu0.fetch2.int_instructions                 8                       # Number of integer instructions successfully decoded
system.cpu0.fetch2.load_instructions                0                       # Number of memory load instructions successfully decoded
system.cpu0.fetch2.store_instructions               0                       # Number of memory store instructions successfully decoded
system.cpu0.fetch2.vec_instructions                 0                       # Number of SIMD instructions successfully decoded
system.cpu0.idleCycles                       85672392                       # Total number of cycles that the object has spent stopped
system.cpu0.ipc                              0.079773                       # IPC: instructions per cycle
system.cpu0.itb.rdAccesses                          0                       # TLB accesses on read requests
system.cpu0.itb.rdMisses                            0                       # TLB misses on read requests
system.cpu0.itb.wrAccesses                    3078853                       # TLB accesses on write requests
system.cpu0.itb.wrMisses                          223                       # TLB misses on write requests
system.cpu0.numCycles                       115752549                       # number of cpu cycles simulated
system.cpu0.numFetchSuspends                        0                       # Number of times Execute suspended instruction fetching
system.cpu0.numWorkItemsCompleted                   0                       # number of work items this cpu completed
system.cpu0.numWorkItemsStarted                     0                       # number of work items this cpu started
system.cpu0.op_class_0::No_OpClass              36094      0.21%      0.21% # Class of committed instruction
system.cpu0.op_class_0::IntAlu               13708470     78.50%     78.70% # Class of committed instruction
system.cpu0.op_class_0::IntMult                 37416      0.21%     78.92% # Class of committed instruction
system.cpu0.op_class_0::IntDiv                   1365      0.01%     78.92% # Class of committed instruction
system.cpu0.op_class_0::FloatAdd                23050      0.13%     79.06% # Class of committed instruction
system.cpu0.op_class_0::FloatCmp                    0      0.00%     79.06% # Class of committed instruction
system.cpu0.op_class_0::FloatCvt                  160      0.00%     79.06% # Class of committed instruction
system.cpu0.op_class_0::FloatMult                   0      0.00%     79.06% # Class of committed instruction
system.cpu0.op_class_0::FloatMultAcc                0      0.00%     79.06% # Class of committed instruction
system.cpu0.op_class_0::FloatDiv                    0      0.00%     79.06% # Class of committed instruction
system.cpu0.op_class_0::FloatMisc                   0      0.00%     79.06% # Class of committed instruction
system.cpu0.op_class_0::FloatSqrt                   0      0.00%     79.06% # Class of committed instruction
system.cpu0.op_class_0::SimdAdd                   946      0.01%     79.06% # Class of committed instruction
system.cpu0.op_class_0::SimdAddAcc                  0      0.00%     79.06% # Class of committed instruction
system.cpu0.op_class_0::SimdAlu                  1027      0.01%     79.07% # Class of committed instruction
system.cpu0.op_class_0::SimdCmp                    12      0.00%     79.07% # Class of committed instruction
system.cpu0.op_class_0::SimdCvt                 25552      0.15%     79.22% # Class of committed instruction
system.cpu0.op_class_0::SimdMisc               104939      0.60%     79.82% # Class of committed instruction
system.cpu0.op_class_0::SimdMult                    0      0.00%     79.82% # Class of committed instruction
system.cpu0.op_class_0::SimdMultAcc                 0      0.00%     79.82% # Class of committed instruction
system.cpu0.op_class_0::SimdShift                 446      0.00%     79.82% # Class of committed instruction
system.cpu0.op_class_0::SimdShiftAcc                0      0.00%     79.82% # Class of committed instruction
system.cpu0.op_class_0::SimdDiv                     0      0.00%     79.82% # Class of committed instruction
system.cpu0.op_class_0::SimdSqrt                    0      0.00%     79.82% # Class of committed instruction
system.cpu0.op_class_0::SimdFloatAdd                0      0.00%     79.82% # Class of committed instruction
system.cpu0.op_class_0::SimdFloatAlu                0      0.00%     79.82% # Class of committed instruction
system.cpu0.op_class_0::SimdFloatCmp                0      0.00%     79.82% # Class of committed instruction
system.cpu0.op_class_0::SimdFloatCvt                0      0.00%     79.82% # Class of committed instruction
system.cpu0.op_class_0::SimdFloatDiv                0      0.00%     79.82% # Class of committed instruction
system.cpu0.op_class_0::SimdFloatMisc               0      0.00%     79.82% # Class of committed instruction
system.cpu0.op_class_0::SimdFloatMult               0      0.00%     79.82% # Class of committed instruction
system.cpu0.op_class_0::SimdFloatMultAcc            0      0.00%     79.82% # Class of committed instruction
system.cpu0.op_class_0::SimdFloatSqrt               0      0.00%     79.82% # Class of committed instruction
system.cpu0.op_class_0::SimdReduceAdd               0      0.00%     79.82% # Class of committed instruction
system.cpu0.op_class_0::SimdReduceAlu               0      0.00%     79.82% # Class of committed instruction
system.cpu0.op_class_0::SimdReduceCmp               0      0.00%     79.82% # Class of committed instruction
system.cpu0.op_class_0::SimdFloatReduceAdd            0      0.00%     79.82% # Class of committed instruction
system.cpu0.op_class_0::SimdFloatReduceCmp            0      0.00%     79.82% # Class of committed instruction
system.cpu0.op_class_0::SimdAes                     0      0.00%     79.82% # Class of committed instruction
system.cpu0.op_class_0::SimdAesMix                  0      0.00%     79.82% # Class of committed instruction
system.cpu0.op_class_0::SimdSha1Hash                0      0.00%     79.82% # Class of committed instruction
system.cpu0.op_class_0::SimdSha1Hash2               0      0.00%     79.82% # Class of committed instruction
system.cpu0.op_class_0::SimdSha256Hash              0      0.00%     79.82% # Class of committed instruction
system.cpu0.op_class_0::SimdSha256Hash2             0      0.00%     79.82% # Class of committed instruction
system.cpu0.op_class_0::SimdShaSigma2               0      0.00%     79.82% # Class of committed instruction
system.cpu0.op_class_0::SimdShaSigma3               0      0.00%     79.82% # Class of committed instruction
system.cpu0.op_class_0::SimdPredAlu                 0      0.00%     79.82% # Class of committed instruction
system.cpu0.op_class_0::MemRead               1892001     10.83%     90.65% # Class of committed instruction
system.cpu0.op_class_0::MemWrite              1536627      8.80%     99.45% # Class of committed instruction
system.cpu0.op_class_0::FloatMemRead            60322      0.35%     99.80% # Class of committed instruction
system.cpu0.op_class_0::FloatMemWrite           35538      0.20%    100.00% # Class of committed instruction
system.cpu0.op_class_0::IprAccess                   0      0.00%    100.00% # Class of committed instruction
system.cpu0.op_class_0::InstPrefetch                0      0.00%    100.00% # Class of committed instruction
system.cpu0.op_class_0::total                17463965                       # Class of committed instruction
system.cpu0.tickCycles                       30080157                       # Number of cycles that the object actually ticked
system.cpu0.workload.numSyscalls                   38                       # Number of system calls
system.cpu1.branchPred.BTBCorrect                   0                       # Number of correct BTB predictions (this stat may not work properly.
system.cpu1.branchPred.BTBHitPct                  nan                       # BTB Hit Percentage
system.cpu1.branchPred.BTBHits                      0                       # Number of BTB hits
system.cpu1.branchPred.BTBLookups                   0                       # Number of BTB lookups
system.cpu1.branchPred.RASInCorrect                 0                       # Number of incorrect RAS predictions.
system.cpu1.branchPred.condIncorrect               40                       # Number of conditional branches incorrect
system.cpu1.branchPred.condPredicted               84                       # Number of conditional branches predicted
system.cpu1.branchPred.indirectHits                 0                       # Number of indirect target hits.
system.cpu1.branchPred.indirectLookups             25                       # Number of indirect predictor lookups.
system.cpu1.branchPred.indirectMisses              25                       # Number of indirect misses.
system.cpu1.branchPred.lookups                     84                       # Number of BP lookups
system.cpu1.branchPred.usedRAS                      0                       # Number of times the RAS was used to get a target.
system.cpu1.branchPredindirectMispredicted           13                       # Number of mispredicted indirect branches.
system.cpu1.committedInsts                   10000001                       # Number of instructions committed
system.cpu1.committedOps                     14509368                       # Number of ops (including micro ops) committed
system.cpu1.cpi                             11.575258                       # CPI: cycles per instruction
system.cpu1.discardedOps                      1920436                       # Number of ops (including micro ops) which were discarded before commit
system.cpu1.dtb.rdAccesses                    1871003                       # TLB accesses on read requests
system.cpu1.dtb.rdMisses                       365550                       # TLB misses on read requests
system.cpu1.dtb.wrAccesses                    7295814                       # TLB accesses on write requests
system.cpu1.dtb.wrMisses                        28449                       # TLB misses on write requests
system.cpu1.fetch2.amo_instructions                 0                       # Number of memory atomic instructions successfully decoded
system.cpu1.fetch2.fp_instructions                  0                       # Number of floating point instructions successfully decoded
system.cpu1.fetch2.int_instructions                 8                       # Number of integer instructions successfully decoded
system.cpu1.fetch2.load_instructions                0                       # Number of memory load instructions successfully decoded
system.cpu1.fetch2.store_instructions               0                       # Number of memory store instructions successfully decoded
system.cpu1.fetch2.vec_instructions                 0                       # Number of SIMD instructions successfully decoded
system.cpu1.idleCycles                       95782537                       # Total number of cycles that the object has spent stopped
system.cpu1.ipc                              0.086391                       # IPC: instructions per cycle
system.cpu1.itb.rdAccesses                          0                       # TLB accesses on read requests
system.cpu1.itb.rdMisses                            0                       # TLB misses on read requests
system.cpu1.itb.wrAccesses                    2313333                       # TLB accesses on write requests
system.cpu1.itb.wrMisses                          253                       # TLB misses on write requests
system.cpu1.numCycles                       115752589                       # number of cpu cycles simulated
system.cpu1.numFetchSuspends                        0                       # Number of times Execute suspended instruction fetching
system.cpu1.numWorkItemsCompleted                   0                       # number of work items this cpu completed
system.cpu1.numWorkItemsStarted                     0                       # number of work items this cpu started
system.cpu1.op_class_0::No_OpClass               1997      0.01%      0.01% # Class of committed instruction
system.cpu1.op_class_0::IntAlu                4979363     34.32%     34.33% # Class of committed instruction
system.cpu1.op_class_0::IntMult                    36      0.00%     34.33% # Class of committed instruction
system.cpu1.op_class_0::IntDiv                   1447      0.01%     34.34% # Class of committed instruction
system.cpu1.op_class_0::FloatAdd              1090392      7.52%     41.86% # Class of committed instruction
system.cpu1.op_class_0::FloatCmp                    0      0.00%     41.86% # Class of committed instruction
system.cpu1.op_class_0::FloatCvt                  112      0.00%     41.86% # Class of committed instruction
system.cpu1.op_class_0::FloatMult                   0      0.00%     41.86% # Class of committed instruction
system.cpu1.op_class_0::FloatMultAcc                0      0.00%     41.86% # Class of committed instruction
system.cpu1.op_class_0::FloatDiv                    0      0.00%     41.86% # Class of committed instruction
system.cpu1.op_class_0::FloatMisc                   0      0.00%     41.86% # Class of committed instruction
system.cpu1.op_class_0::FloatSqrt                   0      0.00%     41.86% # Class of committed instruction
system.cpu1.op_class_0::SimdAdd                  1140      0.01%     41.87% # Class of committed instruction
system.cpu1.op_class_0::SimdAddAcc                  0      0.00%     41.87% # Class of committed instruction
system.cpu1.op_class_0::SimdAlu                  1367      0.01%     41.88% # Class of committed instruction
system.cpu1.op_class_0::SimdCmp                    12      0.00%     41.88% # Class of committed instruction
system.cpu1.op_class_0::SimdCvt                  1866      0.01%     41.89% # Class of committed instruction
system.cpu1.op_class_0::SimdMisc                 1287      0.01%     41.90% # Class of committed instruction
system.cpu1.op_class_0::SimdMult                    0      0.00%     41.90% # Class of committed instruction
system.cpu1.op_class_0::SimdMultAcc                 0      0.00%     41.90% # Class of committed instruction
system.cpu1.op_class_0::SimdShift                 426      0.00%     41.90% # Class of committed instruction
system.cpu1.op_class_0::SimdShiftAcc                0      0.00%     41.90% # Class of committed instruction
system.cpu1.op_class_0::SimdDiv                     0      0.00%     41.90% # Class of committed instruction
system.cpu1.op_class_0::SimdSqrt                    0      0.00%     41.90% # Class of committed instruction
system.cpu1.op_class_0::SimdFloatAdd                0      0.00%     41.90% # Class of committed instruction
system.cpu1.op_class_0::SimdFloatAlu                0      0.00%     41.90% # Class of committed instruction
system.cpu1.op_class_0::SimdFloatCmp                0      0.00%     41.90% # Class of committed instruction
system.cpu1.op_class_0::SimdFloatCvt                2      0.00%     41.90% # Class of committed instruction
system.cpu1.op_class_0::SimdFloatDiv                0      0.00%     41.90% # Class of committed instruction
system.cpu1.op_class_0::SimdFloatMisc               0      0.00%     41.90% # Class of committed instruction
system.cpu1.op_class_0::SimdFloatMult               0      0.00%     41.90% # Class of committed instruction
system.cpu1.op_class_0::SimdFloatMultAcc            0      0.00%     41.90% # Class of committed instruction
system.cpu1.op_class_0::SimdFloatSqrt               0      0.00%     41.90% # Class of committed instruction
system.cpu1.op_class_0::SimdReduceAdd               0      0.00%     41.90% # Class of committed instruction
system.cpu1.op_class_0::SimdReduceAlu               0      0.00%     41.90% # Class of committed instruction
system.cpu1.op_class_0::SimdReduceCmp               0      0.00%     41.90% # Class of committed instruction
system.cpu1.op_class_0::SimdFloatReduceAdd            0      0.00%     41.90% # Class of committed instruction
system.cpu1.op_class_0::SimdFloatReduceCmp            0      0.00%     41.90% # Class of committed instruction
system.cpu1.op_class_0::SimdAes                     0      0.00%     41.90% # Class of committed instruction
system.cpu1.op_class_0::SimdAesMix                  0      0.00%     41.90% # Class of committed instruction
system.cpu1.op_class_0::SimdSha1Hash                0      0.00%     41.90% # Class of committed instruction
system.cpu1.op_class_0::SimdSha1Hash2               0      0.00%     41.90% # Class of committed instruction
system.cpu1.op_class_0::SimdSha256Hash              0      0.00%     41.90% # Class of committed instruction
system.cpu1.op_class_0::SimdSha256Hash2             0      0.00%     41.90% # Class of committed instruction
system.cpu1.op_class_0::SimdShaSigma2               0      0.00%     41.90% # Class of committed instruction
system.cpu1.op_class_0::SimdShaSigma3               0      0.00%     41.90% # Class of committed instruction
system.cpu1.op_class_0::SimdPredAlu                 0      0.00%     41.90% # Class of committed instruction
system.cpu1.op_class_0::MemRead                 42409      0.29%     42.19% # Class of committed instruction
system.cpu1.op_class_0::MemWrite               389289      2.68%     44.88% # Class of committed instruction
system.cpu1.op_class_0::FloatMemRead          1092474      7.53%     52.40% # Class of committed instruction
system.cpu1.op_class_0::FloatMemWrite         6905749     47.60%    100.00% # Class of committed instruction
system.cpu1.op_class_0::IprAccess                   0      0.00%    100.00% # Class of committed instruction
system.cpu1.op_class_0::InstPrefetch                0      0.00%    100.00% # Class of committed instruction
system.cpu1.op_class_0::total                14509368                       # Class of committed instruction
system.cpu1.tickCycles                       19970052                       # Number of cycles that the object actually ticked
system.cpu1.workload.numSyscalls                   40                       # Number of system calls
system.membus.snoop_filter.hit_multi_requests            0                       # Number of requests hitting in the snoop filter with multiple (>1) holders of the requested data.
system.membus.snoop_filter.hit_multi_snoops            0                       # Number of snoops hitting in the snoop filter with multiple (>1) holders of the requested data.
system.membus.snoop_filter.hit_single_requests      1331630                       # Number of requests hitting in the snoop filter with a single holder of the requested data.
system.membus.snoop_filter.hit_single_snoops            0                       # Number of snoops hitting in the snoop filter with a single holder of the requested data.
system.membus.snoop_filter.tot_requests       2664304                       # Total number of requests made to the snoop filter.
system.membus.snoop_filter.tot_snoops               0                       # Total number of snoops made to the snoop filter.
system.tol2bus.snoop_filter.hit_multi_requests            0                       # Number of requests hitting in the snoop filter with multiple (>1) holders of the requested data.
system.tol2bus.snoop_filter.hit_multi_snoops            0                       # Number of snoops hitting in the snoop filter with multiple (>1) holders of the requested data.
system.tol2bus.snoop_filter.hit_single_requests      3010521                       # Number of requests hitting in the snoop filter with a single holder of the requested data.
system.tol2bus.snoop_filter.hit_single_snoops         2004                       # Number of snoops hitting in the snoop filter with a single holder of the requested data.
system.tol2bus.snoop_filter.tot_requests      6021109                       # Total number of requests made to the snoop filter.
system.tol2bus.snoop_filter.tot_snoops           2004                       # Total number of snoops made to the snoop filter.
system.membus.trans_dist::ReadResp             377247                       # Transaction distribution
system.membus.trans_dist::WritebackDirty       960358                       # Transaction distribution
system.membus.trans_dist::CleanEvict           371272                       # Transaction distribution
system.membus.trans_dist::ReadExReq            955426                       # Transaction distribution
system.membus.trans_dist::ReadExResp           955425                       # Transaction distribution
system.membus.trans_dist::ReadSharedReq        377248                       # Transaction distribution
system.membus.pkt_count_system.l2.mem_side::system.mem_ctrls.port      3996976                       # Packet count per connected master and slave (bytes)
system.membus.pkt_count_system.l2.mem_side::total      3996976                       # Packet count per connected master and slave (bytes)
system.membus.pkt_count::total                3996976                       # Packet count per connected master and slave (bytes)
system.membus.pkt_size_system.l2.mem_side::system.mem_ctrls.port    146753920                       # Cumulative packet size per connected master and slave (bytes)
system.membus.pkt_size_system.l2.mem_side::total    146753920                       # Cumulative packet size per connected master and slave (bytes)
system.membus.pkt_size::total               146753920                       # Cumulative packet size per connected master and slave (bytes)
system.membus.snoops                                0                       # Total snoops (count)
system.membus.snoopTraffic                          0                       # Total snoop traffic (bytes)
system.membus.snoop_fanout::samples           1332674                       # Request fanout histogram
system.membus.snoop_fanout::mean                    0                       # Request fanout histogram
system.membus.snoop_fanout::stdev                   0                       # Request fanout histogram
system.membus.snoop_fanout::underflows              0      0.00%      0.00% # Request fanout histogram
system.membus.snoop_fanout::0                 1332674    100.00%    100.00% # Request fanout histogram
system.membus.snoop_fanout::1                       0      0.00%    100.00% # Request fanout histogram
system.membus.snoop_fanout::overflows               0      0.00%    100.00% # Request fanout histogram
system.membus.snoop_fanout::min_value               0                       # Request fanout histogram
system.membus.snoop_fanout::max_value               0                       # Request fanout histogram
system.membus.snoop_fanout::total             1332674                       # Request fanout histogram
system.membus.reqLayer4.occupancy          6912154500                       # Layer occupancy (ticks)
system.membus.reqLayer4.utilization              11.9                       # Layer utilization (%)
system.membus.respLayer1.occupancy         7031610250                       # Layer occupancy (ticks)
system.membus.respLayer1.utilization             12.1                       # Layer utilization (%)
system.membus.power_state.pwrStateResidencyTicks::UNDEFINED  57876294500                       # Cumulative time (in ticks) in various power states
system.voltage_domain.voltage                       1                       # Voltage in Volts
system.clk_domain.clock                          1000                       # Clock period in ticks
system.cpu0.icache.demand_hits::.cpu0.inst      1589248                       # number of demand (read+write) hits
system.cpu0.icache.demand_hits::total         1589248                       # number of demand (read+write) hits
system.cpu0.icache.overall_hits::.cpu0.inst      1589248                       # number of overall hits
system.cpu0.icache.overall_hits::total        1589248                       # number of overall hits
system.cpu0.icache.demand_misses::.cpu0.inst      1489552                       # number of demand (read+write) misses
system.cpu0.icache.demand_misses::total       1489552                       # number of demand (read+write) misses
system.cpu0.icache.overall_misses::.cpu0.inst      1489552                       # number of overall misses
system.cpu0.icache.overall_misses::total      1489552                       # number of overall misses
system.cpu0.icache.demand_miss_latency::.cpu0.inst  43160913500                       # number of demand (read+write) miss cycles
system.cpu0.icache.demand_miss_latency::total  43160913500                       # number of demand (read+write) miss cycles
system.cpu0.icache.overall_miss_latency::.cpu0.inst  43160913500                       # number of overall miss cycles
system.cpu0.icache.overall_miss_latency::total  43160913500                       # number of overall miss cycles
system.cpu0.icache.demand_accesses::.cpu0.inst      3078800                       # number of demand (read+write) accesses
system.cpu0.icache.demand_accesses::total      3078800                       # number of demand (read+write) accesses
system.cpu0.icache.overall_accesses::.cpu0.inst      3078800                       # number of overall (read+write) accesses
system.cpu0.icache.overall_accesses::total      3078800                       # number of overall (read+write) accesses
system.cpu0.icache.demand_miss_rate::.cpu0.inst     0.483809                       # miss rate for demand accesses
system.cpu0.icache.demand_miss_rate::total     0.483809                       # miss rate for demand accesses
system.cpu0.icache.overall_miss_rate::.cpu0.inst     0.483809                       # miss rate for overall accesses
system.cpu0.icache.overall_miss_rate::total     0.483809                       # miss rate for overall accesses
system.cpu0.icache.demand_avg_miss_latency::.cpu0.inst 28975.768218                       # average overall miss latency
system.cpu0.icache.demand_avg_miss_latency::total 28975.768218                       # average overall miss latency
system.cpu0.icache.overall_avg_miss_latency::.cpu0.inst 28975.768218                       # average overall miss latency
system.cpu0.icache.overall_avg_miss_latency::total 28975.768218                       # average overall miss latency
system.cpu0.icache.blocked_cycles::no_mshrs            0                       # number of cycles access was blocked
system.cpu0.icache.blocked_cycles::no_targets            0                       # number of cycles access was blocked
system.cpu0.icache.blocked::no_mshrs                0                       # number of cycles access was blocked
system.cpu0.icache.blocked::no_targets              0                       # number of cycles access was blocked
system.cpu0.icache.avg_blocked_cycles::no_mshrs          nan                       # average number of cycles each access was blocked
system.cpu0.icache.avg_blocked_cycles::no_targets          nan                       # average number of cycles each access was blocked
system.cpu0.icache.writebacks::.writebacks      1489535                       # number of writebacks
system.cpu0.icache.writebacks::total          1489535                       # number of writebacks
system.cpu0.icache.demand_mshr_misses::.cpu0.inst      1489552                       # number of demand (read+write) MSHR misses
system.cpu0.icache.demand_mshr_misses::total      1489552                       # number of demand (read+write) MSHR misses
system.cpu0.icache.overall_mshr_misses::.cpu0.inst      1489552                       # number of overall MSHR misses
system.cpu0.icache.overall_mshr_misses::total      1489552                       # number of overall MSHR misses
system.cpu0.icache.demand_mshr_miss_latency::.cpu0.inst  41671362500                       # number of demand (read+write) MSHR miss cycles
system.cpu0.icache.demand_mshr_miss_latency::total  41671362500                       # number of demand (read+write) MSHR miss cycles
system.cpu0.icache.overall_mshr_miss_latency::.cpu0.inst  41671362500                       # number of overall MSHR miss cycles
system.cpu0.icache.overall_mshr_miss_latency::total  41671362500                       # number of overall MSHR miss cycles
system.cpu0.icache.demand_mshr_miss_rate::.cpu0.inst     0.483809                       # mshr miss rate for demand accesses
system.cpu0.icache.demand_mshr_miss_rate::total     0.483809                       # mshr miss rate for demand accesses
system.cpu0.icache.overall_mshr_miss_rate::.cpu0.inst     0.483809                       # mshr miss rate for overall accesses
system.cpu0.icache.overall_mshr_miss_rate::total     0.483809                       # mshr miss rate for overall accesses
system.cpu0.icache.demand_avg_mshr_miss_latency::.cpu0.inst 27975.768889                       # average overall mshr miss latency
system.cpu0.icache.demand_avg_mshr_miss_latency::total 27975.768889                       # average overall mshr miss latency
system.cpu0.icache.overall_avg_mshr_miss_latency::.cpu0.inst 27975.768889                       # average overall mshr miss latency
system.cpu0.icache.overall_avg_mshr_miss_latency::total 27975.768889                       # average overall mshr miss latency
system.cpu0.icache.replacements               1489535                       # number of replacements
system.cpu0.icache.ReadReq_hits::.cpu0.inst      1589248                       # number of ReadReq hits
system.cpu0.icache.ReadReq_hits::total        1589248                       # number of ReadReq hits
system.cpu0.icache.ReadReq_misses::.cpu0.inst      1489552                       # number of ReadReq misses
system.cpu0.icache.ReadReq_misses::total      1489552                       # number of ReadReq misses
system.cpu0.icache.ReadReq_miss_latency::.cpu0.inst  43160913500                       # number of ReadReq miss cycles
system.cpu0.icache.ReadReq_miss_latency::total  43160913500                       # number of ReadReq miss cycles
system.cpu0.icache.ReadReq_accesses::.cpu0.inst      3078800                       # number of ReadReq accesses(hits+misses)
system.cpu0.icache.ReadReq_accesses::total      3078800                       # number of ReadReq accesses(hits+misses)
system.cpu0.icache.ReadReq_miss_rate::.cpu0.inst     0.483809                       # miss rate for ReadReq accesses
system.cpu0.icache.ReadReq_miss_rate::total     0.483809                       # miss rate for ReadReq accesses
system.cpu0.icache.ReadReq_avg_miss_latency::.cpu0.inst 28975.768218                       # average ReadReq miss latency
system.cpu0.icache.ReadReq_avg_miss_latency::total 28975.768218                       # average ReadReq miss latency
system.cpu0.icache.ReadReq_mshr_misses::.cpu0.inst      1489552                       # number of ReadReq MSHR misses
system.cpu0.icache.ReadReq_mshr_misses::total      1489552                       # number of ReadReq MSHR misses
system.cpu0.icache.ReadReq_mshr_miss_latency::.cpu0.inst  41671362500                       # number of ReadReq MSHR miss cycles
system.cpu0.icache.ReadReq_mshr_miss_latency::total  41671362500                       # number of ReadReq MSHR miss cycles
system.cpu0.icache.ReadReq_mshr_miss_rate::.cpu0.inst     0.483809                       # mshr miss rate for ReadReq accesses
system.cpu0.icache.ReadReq_mshr_miss_rate::total     0.483809                       # mshr miss rate for ReadReq accesses
system.cpu0.icache.ReadReq_avg_mshr_miss_latency::.cpu0.inst 27975.768889                       # average ReadReq mshr miss latency
system.cpu0.icache.ReadReq_avg_mshr_miss_latency::total 27975.768889                       # average ReadReq mshr miss latency
system.cpu0.icache.power_state.pwrStateResidencyTicks::UNDEFINED  57876294500                       # Cumulative time (in ticks) in various power states
system.cpu0.icache.tags.tagsinuse           15.999764                       # Cycle average of tags in use
system.cpu0.icache.tags.total_refs            3078799                       # Total number of references to valid blocks.
system.cpu0.icache.tags.sampled_refs          1489551                       # Sample count of references to valid blocks.
system.cpu0.icache.tags.avg_refs             2.066931                       # Average number of references to valid blocks.
system.cpu0.icache.tags.warmup_cycle            87500                       # Cycle when the warmup percentage was hit.
system.cpu0.icache.tags.occ_blocks::.cpu0.inst    15.999764                       # Average occupied blocks per requestor
system.cpu0.icache.tags.occ_percent::.cpu0.inst     0.999985                       # Average percentage of cache occupancy
system.cpu0.icache.tags.occ_percent::total     0.999985                       # Average percentage of cache occupancy
system.cpu0.icache.tags.occ_task_id_blocks::1024           16                       # Occupied blocks per task id
system.cpu0.icache.tags.age_task_id_blocks_1024::0           16                       # Occupied blocks per task id
system.cpu0.icache.tags.occ_task_id_percent::1024            1                       # Percentage of cache occupancy per task id
system.cpu0.icache.tags.tag_accesses         26119951                       # Number of tag accesses
system.cpu0.icache.tags.data_accesses        26119951                       # Number of data accesses
system.cpu0.icache.tags.power_state.pwrStateResidencyTicks::UNDEFINED  57876294500                       # Cumulative time (in ticks) in various power states
system.cpu0.dtb.walker.power_state.pwrStateResidencyTicks::UNDEFINED  57876294500                       # Cumulative time (in ticks) in various power states
system.cpu0.interrupts.clk_domain.clock          8000                       # Clock period in ticks
system.cpu0.itb_walker_cache.blocked_cycles::no_mshrs            0                       # number of cycles access was blocked
system.cpu0.itb_walker_cache.blocked_cycles::no_targets            0                       # number of cycles access was blocked
system.cpu0.itb_walker_cache.blocked::no_mshrs            0                       # number of cycles access was blocked
system.cpu0.itb_walker_cache.blocked::no_targets            0                       # number of cycles access was blocked
system.cpu0.itb_walker_cache.avg_blocked_cycles::no_mshrs          nan                       # average number of cycles each access was blocked
system.cpu0.itb_walker_cache.avg_blocked_cycles::no_targets          nan                       # average number of cycles each access was blocked
system.cpu0.itb_walker_cache.replacements            0                       # number of replacements
system.cpu0.itb_walker_cache.power_state.pwrStateResidencyTicks::UNDEFINED  57876294500                       # Cumulative time (in ticks) in various power states
system.cpu0.itb_walker_cache.tags.tagsinuse            0                       # Cycle average of tags in use
system.cpu0.itb_walker_cache.tags.total_refs            0                       # Total number of references to valid blocks.
system.cpu0.itb_walker_cache.tags.sampled_refs            0                       # Sample count of references to valid blocks.
system.cpu0.itb_walker_cache.tags.avg_refs          nan                       # Average number of references to valid blocks.
system.cpu0.itb_walker_cache.tags.warmup_cycle            0                       # Cycle when the warmup percentage was hit.
system.cpu0.itb_walker_cache.tags.tag_accesses            0                       # Number of tag accesses
system.cpu0.itb_walker_cache.tags.data_accesses            0                       # Number of data accesses
system.cpu0.itb_walker_cache.tags.power_state.pwrStateResidencyTicks::UNDEFINED  57876294500                       # Cumulative time (in ticks) in various power states
system.cpu0.dtb_walker_cache.blocked_cycles::no_mshrs            0                       # number of cycles access was blocked
system.cpu0.dtb_walker_cache.blocked_cycles::no_targets            0                       # number of cycles access was blocked
system.cpu0.dtb_walker_cache.blocked::no_mshrs            0                       # number of cycles access was blocked
system.cpu0.dtb_walker_cache.blocked::no_targets            0                       # number of cycles access was blocked
system.cpu0.dtb_walker_cache.avg_blocked_cycles::no_mshrs          nan                       # average number of cycles each access was blocked
system.cpu0.dtb_walker_cache.avg_blocked_cycles::no_targets          nan                       # average number of cycles each access was blocked
system.cpu0.dtb_walker_cache.replacements            0                       # number of replacements
system.cpu0.dtb_walker_cache.power_state.pwrStateResidencyTicks::UNDEFINED  57876294500                       # Cumulative time (in ticks) in various power states
system.cpu0.dtb_walker_cache.tags.tagsinuse            0                       # Cycle average of tags in use
system.cpu0.dtb_walker_cache.tags.total_refs            0                       # Total number of references to valid blocks.
system.cpu0.dtb_walker_cache.tags.sampled_refs            0                       # Sample count of references to valid blocks.
system.cpu0.dtb_walker_cache.tags.avg_refs          nan                       # Average number of references to valid blocks.
system.cpu0.dtb_walker_cache.tags.warmup_cycle            0                       # Cycle when the warmup percentage was hit.
system.cpu0.dtb_walker_cache.tags.tag_accesses            0                       # Number of tag accesses
system.cpu0.dtb_walker_cache.tags.data_accesses            0                       # Number of data accesses
system.cpu0.dtb_walker_cache.tags.power_state.pwrStateResidencyTicks::UNDEFINED  57876294500                       # Cumulative time (in ticks) in various power states
system.cpu0.dcache.demand_hits::.cpu0.data      3147223                       # number of demand (read+write) hits
system.cpu0.dcache.demand_hits::total         3147223                       # number of demand (read+write) hits
system.cpu0.dcache.overall_hits::.cpu0.data      3147223                       # number of overall hits
system.cpu0.dcache.overall_hits::total        3147223                       # number of overall hits
system.cpu0.dcache.demand_misses::.cpu0.data       670255                       # number of demand (read+write) misses
system.cpu0.dcache.demand_misses::total        670255                       # number of demand (read+write) misses
system.cpu0.dcache.overall_misses::.cpu0.data       670255                       # number of overall misses
system.cpu0.dcache.overall_misses::total       670255                       # number of overall misses
system.cpu0.dcache.demand_miss_latency::.cpu0.data  20370166500                       # number of demand (read+write) miss cycles
system.cpu0.dcache.demand_miss_latency::total  20370166500                       # number of demand (read+write) miss cycles
system.cpu0.dcache.overall_miss_latency::.cpu0.data  20370166500                       # number of overall miss cycles
system.cpu0.dcache.overall_miss_latency::total  20370166500                       # number of overall miss cycles
system.cpu0.dcache.demand_accesses::.cpu0.data      3817478                       # number of demand (read+write) accesses
system.cpu0.dcache.demand_accesses::total      3817478                       # number of demand (read+write) accesses
system.cpu0.dcache.overall_accesses::.cpu0.data      3817478                       # number of overall (read+write) accesses
system.cpu0.dcache.overall_accesses::total      3817478                       # number of overall (read+write) accesses
system.cpu0.dcache.demand_miss_rate::.cpu0.data     0.175575                       # miss rate for demand accesses
system.cpu0.dcache.demand_miss_rate::total     0.175575                       # miss rate for demand accesses
system.cpu0.dcache.overall_miss_rate::.cpu0.data     0.175575                       # miss rate for overall accesses
system.cpu0.dcache.overall_miss_rate::total     0.175575                       # miss rate for overall accesses
system.cpu0.dcache.demand_avg_miss_latency::.cpu0.data 30391.666605                       # average overall miss latency
system.cpu0.dcache.demand_avg_miss_latency::total 30391.666605                       # average overall miss latency
system.cpu0.dcache.overall_avg_miss_latency::.cpu0.data 30391.666605                       # average overall miss latency
system.cpu0.dcache.overall_avg_miss_latency::total 30391.666605                       # average overall miss latency
system.cpu0.dcache.blocked_cycles::no_mshrs            0                       # number of cycles access was blocked
system.cpu0.dcache.blocked_cycles::no_targets            0                       # number of cycles access was blocked
system.cpu0.dcache.blocked::no_mshrs                0                       # number of cycles access was blocked
system.cpu0.dcache.blocked::no_targets              0                       # number of cycles access was blocked
system.cpu0.dcache.avg_blocked_cycles::no_mshrs          nan                       # average number of cycles each access was blocked
system.cpu0.dcache.avg_blocked_cycles::no_targets          nan                       # average number of cycles each access was blocked
system.cpu0.dcache.writebacks::.writebacks       357970                       # number of writebacks
system.cpu0.dcache.writebacks::total           357970                       # number of writebacks
system.cpu0.dcache.demand_mshr_hits::.cpu0.data        79921                       # number of demand (read+write) MSHR hits
system.cpu0.dcache.demand_mshr_hits::total        79921                       # number of demand (read+write) MSHR hits
system.cpu0.dcache.overall_mshr_hits::.cpu0.data        79921                       # number of overall MSHR hits
system.cpu0.dcache.overall_mshr_hits::total        79921                       # number of overall MSHR hits
system.cpu0.dcache.demand_mshr_misses::.cpu0.data       590334                       # number of demand (read+write) MSHR misses
system.cpu0.dcache.demand_mshr_misses::total       590334                       # number of demand (read+write) MSHR misses
system.cpu0.dcache.overall_mshr_misses::.cpu0.data       590334                       # number of overall MSHR misses
system.cpu0.dcache.overall_mshr_misses::total       590334                       # number of overall MSHR misses
system.cpu0.dcache.demand_mshr_miss_latency::.cpu0.data  16457994500                       # number of demand (read+write) MSHR miss cycles
system.cpu0.dcache.demand_mshr_miss_latency::total  16457994500                       # number of demand (read+write) MSHR miss cycles
system.cpu0.dcache.overall_mshr_miss_latency::.cpu0.data  16457994500                       # number of overall MSHR miss cycles
system.cpu0.dcache.overall_mshr_miss_latency::total  16457994500                       # number of overall MSHR miss cycles
system.cpu0.dcache.demand_mshr_miss_rate::.cpu0.data     0.154640                       # mshr miss rate for demand accesses
system.cpu0.dcache.demand_mshr_miss_rate::total     0.154640                       # mshr miss rate for demand accesses
system.cpu0.dcache.overall_mshr_miss_rate::.cpu0.data     0.154640                       # mshr miss rate for overall accesses
system.cpu0.dcache.overall_mshr_miss_rate::total     0.154640                       # mshr miss rate for overall accesses
system.cpu0.dcache.demand_avg_mshr_miss_latency::.cpu0.data 27879.123513                       # average overall mshr miss latency
system.cpu0.dcache.demand_avg_mshr_miss_latency::total 27879.123513                       # average overall mshr miss latency
system.cpu0.dcache.overall_avg_mshr_miss_latency::.cpu0.data 27879.123513                       # average overall mshr miss latency
system.cpu0.dcache.overall_avg_mshr_miss_latency::total 27879.123513                       # average overall mshr miss latency
system.cpu0.dcache.replacements                590317                       # number of replacements
system.cpu0.dcache.ReadReq_hits::.cpu0.data      1814553                       # number of ReadReq hits
system.cpu0.dcache.ReadReq_hits::total        1814553                       # number of ReadReq hits
system.cpu0.dcache.ReadReq_misses::.cpu0.data       431325                       # number of ReadReq misses
system.cpu0.dcache.ReadReq_misses::total       431325                       # number of ReadReq misses
system.cpu0.dcache.ReadReq_miss_latency::.cpu0.data  11680554000                       # number of ReadReq miss cycles
system.cpu0.dcache.ReadReq_miss_latency::total  11680554000                       # number of ReadReq miss cycles
system.cpu0.dcache.ReadReq_accesses::.cpu0.data      2245878                       # number of ReadReq accesses(hits+misses)
system.cpu0.dcache.ReadReq_accesses::total      2245878                       # number of ReadReq accesses(hits+misses)
system.cpu0.dcache.ReadReq_miss_rate::.cpu0.data     0.192052                       # miss rate for ReadReq accesses
system.cpu0.dcache.ReadReq_miss_rate::total     0.192052                       # miss rate for ReadReq accesses
system.cpu0.dcache.ReadReq_avg_miss_latency::.cpu0.data 27080.632933                       # average ReadReq miss latency
system.cpu0.dcache.ReadReq_avg_miss_latency::total 27080.632933                       # average ReadReq miss latency
system.cpu0.dcache.ReadReq_mshr_hits::.cpu0.data        16726                       # number of ReadReq MSHR hits
system.cpu0.dcache.ReadReq_mshr_hits::total        16726                       # number of ReadReq MSHR hits
system.cpu0.dcache.ReadReq_mshr_misses::.cpu0.data       414599                       # number of ReadReq MSHR misses
system.cpu0.dcache.ReadReq_mshr_misses::total       414599                       # number of ReadReq MSHR misses
system.cpu0.dcache.ReadReq_mshr_miss_latency::.cpu0.data  10860779500                       # number of ReadReq MSHR miss cycles
system.cpu0.dcache.ReadReq_mshr_miss_latency::total  10860779500                       # number of ReadReq MSHR miss cycles
system.cpu0.dcache.ReadReq_mshr_miss_rate::.cpu0.data     0.184604                       # mshr miss rate for ReadReq accesses
system.cpu0.dcache.ReadReq_mshr_miss_rate::total     0.184604                       # mshr miss rate for ReadReq accesses
system.cpu0.dcache.ReadReq_avg_mshr_miss_latency::.cpu0.data 26195.865161                       # average ReadReq mshr miss latency
system.cpu0.dcache.ReadReq_avg_mshr_miss_latency::total 26195.865161                       # average ReadReq mshr miss latency
system.cpu0.dcache.WriteReq_hits::.cpu0.data      1332670                       # number of WriteReq hits
system.cpu0.dcache.WriteReq_hits::total       1332670                       # number of WriteReq hits
system.cpu0.dcache.WriteReq_misses::.cpu0.data       238930                       # number of WriteReq misses
system.cpu0.dcache.WriteReq_misses::total       238930                       # number of WriteReq misses
system.cpu0.dcache.WriteReq_miss_latency::.cpu0.data   8689612500                       # number of WriteReq miss cycles
system.cpu0.dcache.WriteReq_miss_latency::total   8689612500                       # number of WriteReq miss cycles
system.cpu0.dcache.WriteReq_accesses::.cpu0.data      1571600                       # number of WriteReq accesses(hits+misses)
system.cpu0.dcache.WriteReq_accesses::total      1571600                       # number of WriteReq accesses(hits+misses)
system.cpu0.dcache.WriteReq_miss_rate::.cpu0.data     0.152030                       # miss rate for WriteReq accesses
system.cpu0.dcache.WriteReq_miss_rate::total     0.152030                       # miss rate for WriteReq accesses
system.cpu0.dcache.WriteReq_avg_miss_latency::.cpu0.data 36368.863265                       # average WriteReq miss latency
system.cpu0.dcache.WriteReq_avg_miss_latency::total 36368.863265                       # average WriteReq miss latency
system.cpu0.dcache.WriteReq_mshr_hits::.cpu0.data        63195                       # number of WriteReq MSHR hits
system.cpu0.dcache.WriteReq_mshr_hits::total        63195                       # number of WriteReq MSHR hits
system.cpu0.dcache.WriteReq_mshr_misses::.cpu0.data       175735                       # number of WriteReq MSHR misses
system.cpu0.dcache.WriteReq_mshr_misses::total       175735                       # number of WriteReq MSHR misses
system.cpu0.dcache.WriteReq_mshr_miss_latency::.cpu0.data   5597215000                       # number of WriteReq MSHR miss cycles
system.cpu0.dcache.WriteReq_mshr_miss_latency::total   5597215000                       # number of WriteReq MSHR miss cycles
system.cpu0.dcache.WriteReq_mshr_miss_rate::.cpu0.data     0.111819                       # mshr miss rate for WriteReq accesses
system.cpu0.dcache.WriteReq_mshr_miss_rate::total     0.111819                       # mshr miss rate for WriteReq accesses
system.cpu0.dcache.WriteReq_avg_mshr_miss_latency::.cpu0.data 31850.314394                       # average WriteReq mshr miss latency
system.cpu0.dcache.WriteReq_avg_mshr_miss_latency::total 31850.314394                       # average WriteReq mshr miss latency
system.cpu0.dcache.power_state.pwrStateResidencyTicks::UNDEFINED  57876294500                       # Cumulative time (in ticks) in various power states
system.cpu0.dcache.tags.tagsinuse           15.999779                       # Cycle average of tags in use
system.cpu0.dcache.tags.total_refs            3737556                       # Total number of references to valid blocks.
system.cpu0.dcache.tags.sampled_refs           590333                       # Sample count of references to valid blocks.
system.cpu0.dcache.tags.avg_refs             6.331267                       # Average number of references to valid blocks.
system.cpu0.dcache.tags.warmup_cycle           178500                       # Cycle when the warmup percentage was hit.
system.cpu0.dcache.tags.occ_blocks::.cpu0.data    15.999779                       # Average occupied blocks per requestor
system.cpu0.dcache.tags.occ_percent::.cpu0.data     0.999986                       # Average percentage of cache occupancy
system.cpu0.dcache.tags.occ_percent::total     0.999986                       # Average percentage of cache occupancy
system.cpu0.dcache.tags.occ_task_id_blocks::1024           16                       # Occupied blocks per task id
system.cpu0.dcache.tags.age_task_id_blocks_1024::0           16                       # Occupied blocks per task id
system.cpu0.dcache.tags.occ_task_id_percent::1024            1                       # Percentage of cache occupancy per task id
system.cpu0.dcache.tags.tag_accesses         31130157                       # Number of tag accesses
system.cpu0.dcache.tags.data_accesses        31130157                       # Number of data accesses
system.cpu0.dcache.tags.power_state.pwrStateResidencyTicks::UNDEFINED  57876294500                       # Cumulative time (in ticks) in various power states
system.cpu0.power_state.pwrStateResidencyTicks::ON  57876294500                       # Cumulative time (in ticks) in various power states
system.cpu0.itb.walker.power_state.pwrStateResidencyTicks::UNDEFINED  57876294500                       # Cumulative time (in ticks) in various power states
system.cpu1.icache.demand_hits::.cpu1.inst      2302144                       # number of demand (read+write) hits
system.cpu1.icache.demand_hits::total         2302144                       # number of demand (read+write) hits
system.cpu1.icache.overall_hits::.cpu1.inst      2302144                       # number of overall hits
system.cpu1.icache.overall_hits::total        2302144                       # number of overall hits
system.cpu1.icache.demand_misses::.cpu1.inst        11122                       # number of demand (read+write) misses
system.cpu1.icache.demand_misses::total         11122                       # number of demand (read+write) misses
system.cpu1.icache.overall_misses::.cpu1.inst        11122                       # number of overall misses
system.cpu1.icache.overall_misses::total        11122                       # number of overall misses
system.cpu1.icache.demand_miss_latency::.cpu1.inst    276061000                       # number of demand (read+write) miss cycles
system.cpu1.icache.demand_miss_latency::total    276061000                       # number of demand (read+write) miss cycles
system.cpu1.icache.overall_miss_latency::.cpu1.inst    276061000                       # number of overall miss cycles
system.cpu1.icache.overall_miss_latency::total    276061000                       # number of overall miss cycles
system.cpu1.icache.demand_accesses::.cpu1.inst      2313266                       # number of demand (read+write) accesses
system.cpu1.icache.demand_accesses::total      2313266                       # number of demand (read+write) accesses
system.cpu1.icache.overall_accesses::.cpu1.inst      2313266                       # number of overall (read+write) accesses
system.cpu1.icache.overall_accesses::total      2313266                       # number of overall (read+write) accesses
system.cpu1.icache.demand_miss_rate::.cpu1.inst     0.004808                       # miss rate for demand accesses
system.cpu1.icache.demand_miss_rate::total     0.004808                       # miss rate for demand accesses
system.cpu1.icache.overall_miss_rate::.cpu1.inst     0.004808                       # miss rate for overall accesses
system.cpu1.icache.overall_miss_rate::total     0.004808                       # miss rate for overall accesses
system.cpu1.icache.demand_avg_miss_latency::.cpu1.inst 24821.165258                       # average overall miss latency
system.cpu1.icache.demand_avg_miss_latency::total 24821.165258                       # average overall miss latency
system.cpu1.icache.overall_avg_miss_latency::.cpu1.inst 24821.165258                       # average overall miss latency
system.cpu1.icache.overall_avg_miss_latency::total 24821.165258                       # average overall miss latency
system.cpu1.icache.blocked_cycles::no_mshrs            0                       # number of cycles access was blocked
system.cpu1.icache.blocked_cycles::no_targets            0                       # number of cycles access was blocked
system.cpu1.icache.blocked::no_mshrs                0                       # number of cycles access was blocked
system.cpu1.icache.blocked::no_targets              0                       # number of cycles access was blocked
system.cpu1.icache.avg_blocked_cycles::no_mshrs          nan                       # average number of cycles each access was blocked
system.cpu1.icache.avg_blocked_cycles::no_targets          nan                       # average number of cycles each access was blocked
system.cpu1.icache.writebacks::.writebacks        11106                       # number of writebacks
system.cpu1.icache.writebacks::total            11106                       # number of writebacks
system.cpu1.icache.demand_mshr_misses::.cpu1.inst        11122                       # number of demand (read+write) MSHR misses
system.cpu1.icache.demand_mshr_misses::total        11122                       # number of demand (read+write) MSHR misses
system.cpu1.icache.overall_mshr_misses::.cpu1.inst        11122                       # number of overall MSHR misses
system.cpu1.icache.overall_mshr_misses::total        11122                       # number of overall MSHR misses
system.cpu1.icache.demand_mshr_miss_latency::.cpu1.inst    264939000                       # number of demand (read+write) MSHR miss cycles
system.cpu1.icache.demand_mshr_miss_latency::total    264939000                       # number of demand (read+write) MSHR miss cycles
system.cpu1.icache.overall_mshr_miss_latency::.cpu1.inst    264939000                       # number of overall MSHR miss cycles
system.cpu1.icache.overall_mshr_miss_latency::total    264939000                       # number of overall MSHR miss cycles
system.cpu1.icache.demand_mshr_miss_rate::.cpu1.inst     0.004808                       # mshr miss rate for demand accesses
system.cpu1.icache.demand_mshr_miss_rate::total     0.004808                       # mshr miss rate for demand accesses
system.cpu1.icache.overall_mshr_miss_rate::.cpu1.inst     0.004808                       # mshr miss rate for overall accesses
system.cpu1.icache.overall_mshr_miss_rate::total     0.004808                       # mshr miss rate for overall accesses
system.cpu1.icache.demand_avg_mshr_miss_latency::.cpu1.inst 23821.165258                       # average overall mshr miss latency
system.cpu1.icache.demand_avg_mshr_miss_latency::total 23821.165258                       # average overall mshr miss latency
system.cpu1.icache.overall_avg_mshr_miss_latency::.cpu1.inst 23821.165258                       # average overall mshr miss latency
system.cpu1.icache.overall_avg_mshr_miss_latency::total 23821.165258                       # average overall mshr miss latency
system.cpu1.icache.replacements                 11106                       # number of replacements
system.cpu1.icache.ReadReq_hits::.cpu1.inst      2302144                       # number of ReadReq hits
system.cpu1.icache.ReadReq_hits::total        2302144                       # number of ReadReq hits
system.cpu1.icache.ReadReq_misses::.cpu1.inst        11122                       # number of ReadReq misses
system.cpu1.icache.ReadReq_misses::total        11122                       # number of ReadReq misses
system.cpu1.icache.ReadReq_miss_latency::.cpu1.inst    276061000                       # number of ReadReq miss cycles
system.cpu1.icache.ReadReq_miss_latency::total    276061000                       # number of ReadReq miss cycles
system.cpu1.icache.ReadReq_accesses::.cpu1.inst      2313266                       # number of ReadReq accesses(hits+misses)
system.cpu1.icache.ReadReq_accesses::total      2313266                       # number of ReadReq accesses(hits+misses)
system.cpu1.icache.ReadReq_miss_rate::.cpu1.inst     0.004808                       # miss rate for ReadReq accesses
system.cpu1.icache.ReadReq_miss_rate::total     0.004808                       # miss rate for ReadReq accesses
system.cpu1.icache.ReadReq_avg_miss_latency::.cpu1.inst 24821.165258                       # average ReadReq miss latency
system.cpu1.icache.ReadReq_avg_miss_latency::total 24821.165258                       # average ReadReq miss latency
system.cpu1.icache.ReadReq_mshr_misses::.cpu1.inst        11122                       # number of ReadReq MSHR misses
system.cpu1.icache.ReadReq_mshr_misses::total        11122                       # number of ReadReq MSHR misses
system.cpu1.icache.ReadReq_mshr_miss_latency::.cpu1.inst    264939000                       # number of ReadReq MSHR miss cycles
system.cpu1.icache.ReadReq_mshr_miss_latency::total    264939000                       # number of ReadReq MSHR miss cycles
system.cpu1.icache.ReadReq_mshr_miss_rate::.cpu1.inst     0.004808                       # mshr miss rate for ReadReq accesses
system.cpu1.icache.ReadReq_mshr_miss_rate::total     0.004808                       # mshr miss rate for ReadReq accesses
system.cpu1.icache.ReadReq_avg_mshr_miss_latency::.cpu1.inst 23821.165258                       # average ReadReq mshr miss latency
system.cpu1.icache.ReadReq_avg_mshr_miss_latency::total 23821.165258                       # average ReadReq mshr miss latency
system.cpu1.icache.power_state.pwrStateResidencyTicks::UNDEFINED  57876294500                       # Cumulative time (in ticks) in various power states
system.cpu1.icache.tags.tagsinuse           15.999754                       # Cycle average of tags in use
system.cpu1.icache.tags.total_refs            2313266                       # Total number of references to valid blocks.
system.cpu1.icache.tags.sampled_refs            11122                       # Sample count of references to valid blocks.
system.cpu1.icache.tags.avg_refs           207.990110                       # Average number of references to valid blocks.
system.cpu1.icache.tags.warmup_cycle            94500                       # Cycle when the warmup percentage was hit.
system.cpu1.icache.tags.occ_blocks::.cpu1.inst    15.999754                       # Average occupied blocks per requestor
system.cpu1.icache.tags.occ_percent::.cpu1.inst     0.999985                       # Average percentage of cache occupancy
system.cpu1.icache.tags.occ_percent::total     0.999985                       # Average percentage of cache occupancy
system.cpu1.icache.tags.occ_task_id_blocks::1024           16                       # Occupied blocks per task id
system.cpu1.icache.tags.age_task_id_blocks_1024::4           16                       # Occupied blocks per task id
system.cpu1.icache.tags.occ_task_id_percent::1024            1                       # Percentage of cache occupancy per task id
system.cpu1.icache.tags.tag_accesses         18517250                       # Number of tag accesses
system.cpu1.icache.tags.data_accesses        18517250                       # Number of data accesses
system.cpu1.icache.tags.power_state.pwrStateResidencyTicks::UNDEFINED  57876294500                       # Cumulative time (in ticks) in various power states
system.cpu1.dtb.walker.power_state.pwrStateResidencyTicks::UNDEFINED  57876294500                       # Cumulative time (in ticks) in various power states
system.cpu1.interrupts.clk_domain.clock          8000                       # Clock period in ticks
system.cpu1.itb_walker_cache.blocked_cycles::no_mshrs            0                       # number of cycles access was blocked
system.cpu1.itb_walker_cache.blocked_cycles::no_targets            0                       # number of cycles access was blocked
system.cpu1.itb_walker_cache.blocked::no_mshrs            0                       # number of cycles access was blocked
system.cpu1.itb_walker_cache.blocked::no_targets            0                       # number of cycles access was blocked
system.cpu1.itb_walker_cache.avg_blocked_cycles::no_mshrs          nan                       # average number of cycles each access was blocked
system.cpu1.itb_walker_cache.avg_blocked_cycles::no_targets          nan                       # average number of cycles each access was blocked
system.cpu1.itb_walker_cache.replacements            0                       # number of replacements
system.cpu1.itb_walker_cache.power_state.pwrStateResidencyTicks::UNDEFINED  57876294500                       # Cumulative time (in ticks) in various power states
system.cpu1.itb_walker_cache.tags.tagsinuse            0                       # Cycle average of tags in use
system.cpu1.itb_walker_cache.tags.total_refs            0                       # Total number of references to valid blocks.
system.cpu1.itb_walker_cache.tags.sampled_refs            0                       # Sample count of references to valid blocks.
system.cpu1.itb_walker_cache.tags.avg_refs          nan                       # Average number of references to valid blocks.
system.cpu1.itb_walker_cache.tags.warmup_cycle            0                       # Cycle when the warmup percentage was hit.
system.cpu1.itb_walker_cache.tags.tag_accesses            0                       # Number of tag accesses
system.cpu1.itb_walker_cache.tags.data_accesses            0                       # Number of data accesses
system.cpu1.itb_walker_cache.tags.power_state.pwrStateResidencyTicks::UNDEFINED  57876294500                       # Cumulative time (in ticks) in various power states
system.cpu1.dtb_walker_cache.blocked_cycles::no_mshrs            0                       # number of cycles access was blocked
system.cpu1.dtb_walker_cache.blocked_cycles::no_targets            0                       # number of cycles access was blocked
system.cpu1.dtb_walker_cache.blocked::no_mshrs            0                       # number of cycles access was blocked
system.cpu1.dtb_walker_cache.blocked::no_targets            0                       # number of cycles access was blocked
system.cpu1.dtb_walker_cache.avg_blocked_cycles::no_mshrs          nan                       # average number of cycles each access was blocked
system.cpu1.dtb_walker_cache.avg_blocked_cycles::no_targets          nan                       # average number of cycles each access was blocked
system.cpu1.dtb_walker_cache.replacements            0                       # number of replacements
system.cpu1.dtb_walker_cache.power_state.pwrStateResidencyTicks::UNDEFINED  57876294500                       # Cumulative time (in ticks) in various power states
system.cpu1.dtb_walker_cache.tags.tagsinuse            0                       # Cycle average of tags in use
system.cpu1.dtb_walker_cache.tags.total_refs            0                       # Total number of references to valid blocks.
system.cpu1.dtb_walker_cache.tags.sampled_refs            0                       # Sample count of references to valid blocks.
system.cpu1.dtb_walker_cache.tags.avg_refs          nan                       # Average number of references to valid blocks.
system.cpu1.dtb_walker_cache.tags.warmup_cycle            0                       # Cycle when the warmup percentage was hit.
system.cpu1.dtb_walker_cache.tags.tag_accesses            0                       # Number of tag accesses
system.cpu1.dtb_walker_cache.tags.data_accesses            0                       # Number of data accesses
system.cpu1.dtb_walker_cache.tags.power_state.pwrStateResidencyTicks::UNDEFINED  57876294500                       # Cumulative time (in ticks) in various power states
system.cpu1.dcache.demand_hits::.cpu1.data      7320129                       # number of demand (read+write) hits
system.cpu1.dcache.demand_hits::total         7320129                       # number of demand (read+write) hits
system.cpu1.dcache.overall_hits::.cpu1.data      7320129                       # number of overall hits
system.cpu1.dcache.overall_hits::total        7320129                       # number of overall hits
system.cpu1.dcache.demand_misses::.cpu1.data      1465713                       # number of demand (read+write) misses
system.cpu1.dcache.demand_misses::total       1465713                       # number of demand (read+write) misses
system.cpu1.dcache.overall_misses::.cpu1.data      1465713                       # number of overall misses
system.cpu1.dcache.overall_misses::total      1465713                       # number of overall misses
system.cpu1.dcache.demand_miss_latency::.cpu1.data  99448295500                       # number of demand (read+write) miss cycles
system.cpu1.dcache.demand_miss_latency::total  99448295500                       # number of demand (read+write) miss cycles
system.cpu1.dcache.overall_miss_latency::.cpu1.data  99448295500                       # number of overall miss cycles
system.cpu1.dcache.overall_miss_latency::total  99448295500                       # number of overall miss cycles
system.cpu1.dcache.demand_accesses::.cpu1.data      8785842                       # number of demand (read+write) accesses
system.cpu1.dcache.demand_accesses::total      8785842                       # number of demand (read+write) accesses
system.cpu1.dcache.overall_accesses::.cpu1.data      8785842                       # number of overall (read+write) accesses
system.cpu1.dcache.overall_accesses::total      8785842                       # number of overall (read+write) accesses
system.cpu1.dcache.demand_miss_rate::.cpu1.data     0.166827                       # miss rate for demand accesses
system.cpu1.dcache.demand_miss_rate::total     0.166827                       # miss rate for demand accesses
system.cpu1.dcache.overall_miss_rate::.cpu1.data     0.166827                       # miss rate for overall accesses
system.cpu1.dcache.overall_miss_rate::total     0.166827                       # miss rate for overall accesses
system.cpu1.dcache.demand_avg_miss_latency::.cpu1.data 67849.773796                       # average overall miss latency
system.cpu1.dcache.demand_avg_miss_latency::total 67849.773796                       # average overall miss latency
system.cpu1.dcache.overall_avg_miss_latency::.cpu1.data 67849.773796                       # average overall miss latency
system.cpu1.dcache.overall_avg_miss_latency::total 67849.773796                       # average overall miss latency
system.cpu1.dcache.blocked_cycles::no_mshrs            0                       # number of cycles access was blocked
system.cpu1.dcache.blocked_cycles::no_targets            0                       # number of cycles access was blocked
system.cpu1.dcache.blocked::no_mshrs                0                       # number of cycles access was blocked
system.cpu1.dcache.blocked::no_targets              0                       # number of cycles access was blocked
system.cpu1.dcache.avg_blocked_cycles::no_mshrs          nan                       # average number of cycles each access was blocked
system.cpu1.dcache.avg_blocked_cycles::no_targets          nan                       # average number of cycles each access was blocked
system.cpu1.dcache.writebacks::.writebacks       912898                       # number of writebacks
system.cpu1.dcache.writebacks::total           912898                       # number of writebacks
system.cpu1.dcache.demand_mshr_hits::.cpu1.data       546133                       # number of demand (read+write) MSHR hits
system.cpu1.dcache.demand_mshr_hits::total       546133                       # number of demand (read+write) MSHR hits
system.cpu1.dcache.overall_mshr_hits::.cpu1.data       546133                       # number of overall MSHR hits
system.cpu1.dcache.overall_mshr_hits::total       546133                       # number of overall MSHR hits
system.cpu1.dcache.demand_mshr_misses::.cpu1.data       919580                       # number of demand (read+write) MSHR misses
system.cpu1.dcache.demand_mshr_misses::total       919580                       # number of demand (read+write) MSHR misses
system.cpu1.dcache.overall_mshr_misses::.cpu1.data       919580                       # number of overall MSHR misses
system.cpu1.dcache.overall_mshr_misses::total       919580                       # number of overall MSHR misses
system.cpu1.dcache.demand_mshr_miss_latency::.cpu1.data  78633970000                       # number of demand (read+write) MSHR miss cycles
system.cpu1.dcache.demand_mshr_miss_latency::total  78633970000                       # number of demand (read+write) MSHR miss cycles
system.cpu1.dcache.overall_mshr_miss_latency::.cpu1.data  78633970000                       # number of overall MSHR miss cycles
system.cpu1.dcache.overall_mshr_miss_latency::total  78633970000                       # number of overall MSHR miss cycles
system.cpu1.dcache.demand_mshr_miss_rate::.cpu1.data     0.104666                       # mshr miss rate for demand accesses
system.cpu1.dcache.demand_mshr_miss_rate::total     0.104666                       # mshr miss rate for demand accesses
system.cpu1.dcache.overall_mshr_miss_rate::.cpu1.data     0.104666                       # mshr miss rate for overall accesses
system.cpu1.dcache.overall_mshr_miss_rate::total     0.104666                       # mshr miss rate for overall accesses
system.cpu1.dcache.demand_avg_mshr_miss_latency::.cpu1.data 85510.744035                       # average overall mshr miss latency
system.cpu1.dcache.demand_avg_mshr_miss_latency::total 85510.744035                       # average overall mshr miss latency
system.cpu1.dcache.overall_avg_mshr_miss_latency::.cpu1.data 85510.744035                       # average overall mshr miss latency
system.cpu1.dcache.overall_avg_mshr_miss_latency::total 85510.744035                       # average overall mshr miss latency
system.cpu1.dcache.replacements                919563                       # number of replacements
system.cpu1.dcache.ReadReq_hits::.cpu1.data      1495635                       # number of ReadReq hits
system.cpu1.dcache.ReadReq_hits::total        1495635                       # number of ReadReq hits
system.cpu1.dcache.ReadReq_misses::.cpu1.data         9375                       # number of ReadReq misses
system.cpu1.dcache.ReadReq_misses::total         9375                       # number of ReadReq misses
system.cpu1.dcache.ReadReq_miss_latency::.cpu1.data    326032000                       # number of ReadReq miss cycles
system.cpu1.dcache.ReadReq_miss_latency::total    326032000                       # number of ReadReq miss cycles
system.cpu1.dcache.ReadReq_accesses::.cpu1.data      1505010                       # number of ReadReq accesses(hits+misses)
system.cpu1.dcache.ReadReq_accesses::total      1505010                       # number of ReadReq accesses(hits+misses)
system.cpu1.dcache.ReadReq_miss_rate::.cpu1.data     0.006229                       # miss rate for ReadReq accesses
system.cpu1.dcache.ReadReq_miss_rate::total     0.006229                       # miss rate for ReadReq accesses
system.cpu1.dcache.ReadReq_avg_miss_latency::.cpu1.data 34776.746667                       # average ReadReq miss latency
system.cpu1.dcache.ReadReq_avg_miss_latency::total 34776.746667                       # average ReadReq miss latency
system.cpu1.dcache.ReadReq_mshr_hits::.cpu1.data          335                       # number of ReadReq MSHR hits
system.cpu1.dcache.ReadReq_mshr_hits::total          335                       # number of ReadReq MSHR hits
system.cpu1.dcache.ReadReq_mshr_misses::.cpu1.data         9040                       # number of ReadReq MSHR misses
system.cpu1.dcache.ReadReq_mshr_misses::total         9040                       # number of ReadReq MSHR misses
system.cpu1.dcache.ReadReq_mshr_miss_latency::.cpu1.data    303120500                       # number of ReadReq MSHR miss cycles
system.cpu1.dcache.ReadReq_mshr_miss_latency::total    303120500                       # number of ReadReq MSHR miss cycles
system.cpu1.dcache.ReadReq_mshr_miss_rate::.cpu1.data     0.006007                       # mshr miss rate for ReadReq accesses
system.cpu1.dcache.ReadReq_mshr_miss_rate::total     0.006007                       # mshr miss rate for ReadReq accesses
system.cpu1.dcache.ReadReq_avg_mshr_miss_latency::.cpu1.data 33531.028761                       # average ReadReq mshr miss latency
system.cpu1.dcache.ReadReq_avg_mshr_miss_latency::total 33531.028761                       # average ReadReq mshr miss latency
system.cpu1.dcache.WriteReq_hits::.cpu1.data      5824494                       # number of WriteReq hits
system.cpu1.dcache.WriteReq_hits::total       5824494                       # number of WriteReq hits
system.cpu1.dcache.WriteReq_misses::.cpu1.data      1456338                       # number of WriteReq misses
system.cpu1.dcache.WriteReq_misses::total      1456338                       # number of WriteReq misses
system.cpu1.dcache.WriteReq_miss_latency::.cpu1.data  99122263500                       # number of WriteReq miss cycles
system.cpu1.dcache.WriteReq_miss_latency::total  99122263500                       # number of WriteReq miss cycles
system.cpu1.dcache.WriteReq_accesses::.cpu1.data      7280832                       # number of WriteReq accesses(hits+misses)
system.cpu1.dcache.WriteReq_accesses::total      7280832                       # number of WriteReq accesses(hits+misses)
system.cpu1.dcache.WriteReq_miss_rate::.cpu1.data     0.200024                       # miss rate for WriteReq accesses
[...]
system.mem_ctrls.bytesPerActivate::512-639        10470      2.99%     67.51% # Bytes accessed per row activation
system.mem_ctrls.bytesPerActivate::640-767         9997      2.86%     70.37% # Bytes accessed per row activation
system.mem_ctrls.bytesPerActivate::768-895        10515      3.01%     73.37% # Bytes accessed per row activation
system.mem_ctrls.bytesPerActivate::896-1023         7986      2.28%     75.65% # Bytes accessed per row activation
system.mem_ctrls.bytesPerActivate::1024-1151        85188     24.35%    100.00% # Bytes accessed per row activation
system.mem_ctrls.bytesPerActivate::total       349904                       # Bytes accessed per row activation
system.mem_ctrls.rdPerTurnAround::samples        59763                       # Reads before turning the bus around for writes
system.mem_ctrls.rdPerTurnAround::mean      22.189716                       # Reads before turning the bus around for writes
system.mem_ctrls.rdPerTurnAround::gmean     21.828751                       # Reads before turning the bus around for writes
system.mem_ctrls.rdPerTurnAround::stdev      6.820340                       # Reads before turning the bus around for writes
system.mem_ctrls.rdPerTurnAround::0-31          59658     99.82%     99.82% # Reads before turning the bus around for writes
system.mem_ctrls.rdPerTurnAround::32-63            37      0.06%     99.89% # Reads before turning the bus around for writes
system.mem_ctrls.rdPerTurnAround::64-95            14      0.02%     99.91% # Reads before turning the bus around for writes
system.mem_ctrls.rdPerTurnAround::96-127           20      0.03%     99.94% # Reads before turning the bus around for writes
system.mem_ctrls.rdPerTurnAround::128-159           11      0.02%     99.96% # Reads before turning the bus around for writes
system.mem_ctrls.rdPerTurnAround::160-191            7      0.01%     99.97% # Reads before turning the bus around for writes
system.mem_ctrls.rdPerTurnAround::192-223            1      0.00%     99.97% # Reads before turning the bus around for writes
system.mem_ctrls.rdPerTurnAround::224-255            5      0.01%     99.98% # Reads before turning the bus around for writes
system.mem_ctrls.rdPerTurnAround::256-287            1      0.00%     99.98% # Reads before turning the bus around for writes
system.mem_ctrls.rdPerTurnAround::288-319            3      0.01%     99.99% # Reads before turning the bus around for writes
system.mem_ctrls.rdPerTurnAround::320-351            1      0.00%     99.99% # Reads before turning the bus around for writes
system.mem_ctrls.rdPerTurnAround::352-383            3      0.01%    100.00% # Reads before turning the bus around for writes
system.mem_ctrls.rdPerTurnAround::416-447            1      0.00%    100.00% # Reads before turning the bus around for writes
system.mem_ctrls.rdPerTurnAround::672-703            1      0.00%    100.00% # Reads before turning the bus around for writes
system.mem_ctrls.rdPerTurnAround::total         59763                       # Reads before turning the bus around for writes
system.mem_ctrls.wrPerTurnAround::samples        59763                       # Writes before turning the bus around for reads
system.mem_ctrls.wrPerTurnAround::mean      16.068537                       # Writes before turning the bus around for reads
system.mem_ctrls.wrPerTurnAround::gmean     16.062840                       # Writes before turning the bus around for reads
system.mem_ctrls.wrPerTurnAround::stdev      0.455717                       # Writes before turning the bus around for reads
system.mem_ctrls.wrPerTurnAround::16            58169     97.33%     97.33% # Writes before turning the bus around for reads
system.mem_ctrls.wrPerTurnAround::17              414      0.69%     98.03% # Writes before turning the bus around for reads
system.mem_ctrls.wrPerTurnAround::18              274      0.46%     98.48% # Writes before turning the bus around for reads
system.mem_ctrls.wrPerTurnAround::19              544      0.91%     99.39% # Writes before turning the bus around for reads
system.mem_ctrls.wrPerTurnAround::20              312      0.52%     99.92% # Writes before turning the bus around for reads
system.mem_ctrls.wrPerTurnAround::21               46      0.08%     99.99% # Writes before turning the bus around for reads
system.mem_ctrls.wrPerTurnAround::22                4      0.01%    100.00% # Writes before turning the bus around for reads
system.mem_ctrls.wrPerTurnAround::total         59763                       # Writes before turning the bus around for reads
system.mem_ctrls.bytesReadDRAM               84872384                       # Total number of bytes read from DRAM
system.mem_ctrls.bytesReadWrQ                  418752                       # Total number of bytes read from write queue
system.mem_ctrls.bytesWritten                61459456                       # Total number of bytes written to DRAM
system.mem_ctrls.bytesReadSys                85291136                       # Total read bytes from the system interface side
system.mem_ctrls.bytesWrittenSys             61462912                       # Total written bytes from the system interface side
system.mem_ctrls.avgRdBW                      1466.44                       # Average DRAM read bandwidth in MiByte/s
system.mem_ctrls.avgWrBW                      1061.91                       # Average achieved write bandwidth in MiByte/s
system.mem_ctrls.avgRdBWSys                   1473.68                       # Average system read bandwidth in MiByte/s
system.mem_ctrls.avgWrBWSys                   1061.97                       # Average system write bandwidth in MiByte/s
system.mem_ctrls.peakBW                      12800.00                       # Theoretical peak bandwidth in MiByte/s
system.mem_ctrls.busUtil                        19.75                       # Data bus utilization in percentage
system.mem_ctrls.busUtilRead                    11.46                       # Data bus utilization in percentage for reads
system.mem_ctrls.busUtilWrite                    8.30                       # Data bus utilization in percentage for writes
system.mem_ctrls.totGap                   57876273500                       # Total gap between requests
system.mem_ctrls.avgGap                      25240.06                       # Average gap between requests
system.mem_ctrls.masterReadBytes::.cpu0.inst     19737472                       # Per-master bytes read from memory
system.mem_ctrls.masterReadBytes::.cpu0.data      6664320                       # Per-master bytes read from memory
system.mem_ctrls.masterReadBytes::.cpu1.inst       113600                       # Per-master bytes read from memory
system.mem_ctrls.masterReadBytes::.cpu1.data     58356992                       # Per-master bytes read from memory
system.mem_ctrls.masterWriteBytes::.writebacks     61459456                       # Per-master bytes write to memory
system.mem_ctrls.masterReadRate::.cpu0.inst 341028605.416333258152                       # Per-master bytes read from memory rate (Bytes/sec)
system.mem_ctrls.masterReadRate::.cpu0.data 115147662.053589135408                       # Per-master bytes read from memory rate (Bytes/sec)
system.mem_ctrls.masterReadRate::.cpu1.inst 1962807.069481616374                       # Per-master bytes read from memory rate (Bytes/sec)
system.mem_ctrls.masterReadRate::.cpu1.data 1008305602.564103364944                       # Per-master bytes read from memory rate (Bytes/sec)
system.mem_ctrls.masterWriteRate::.writebacks 1061910692.986746072769                       # Per-master bytes write to memory rate (Bytes/sec)
system.mem_ctrls.masterReadAccesses::.cpu0.inst       308398                       # Per-master read serviced memory accesses
system.mem_ctrls.masterReadAccesses::.cpu0.data       110655                       # Per-master read serviced memory accesses
system.mem_ctrls.masterReadAccesses::.cpu1.inst         1775                       # Per-master read serviced memory accesses
system.mem_ctrls.masterReadAccesses::.cpu1.data       911846                       # Per-master read serviced memory accesses
system.mem_ctrls.masterWriteAccesses::.writebacks       960358                       # Per-master write serviced memory accesses
system.mem_ctrls.masterReadTotalLat::.cpu0.inst  11165887750                       # Per-master read total memory access latency
system.mem_ctrls.masterReadTotalLat::.cpu0.data   4632770500                       # Per-master read total memory access latency
system.mem_ctrls.masterReadTotalLat::.cpu1.inst     54142250                       # Per-master read total memory access latency
system.mem_ctrls.masterReadTotalLat::.cpu1.data  30420495000                       # Per-master read total memory access latency
system.mem_ctrls.masterWriteTotalLat::.writebacks 1452568341500                       # Per-master write total memory access latency
system.mem_ctrls.masterReadAvgLat::.cpu0.inst     36206.10                       # Per-master read average memory access latency
system.mem_ctrls.masterReadAvgLat::.cpu0.data     41866.80                       # Per-master read average memory access latency
system.mem_ctrls.masterReadAvgLat::.cpu1.inst     30502.68                       # Per-master read average memory access latency
system.mem_ctrls.masterReadAvgLat::.cpu1.data     33361.44                       # Per-master read average memory access latency
system.mem_ctrls.masterWriteAvgLat::.writebacks   1512527.98                       # Per-master write average memory access latency
system.mem_ctrls.pageHitRate                    84.70                       # Row buffer hit rate, read and write combined
system.mem_ctrls.rank1.actEnergy           1184890140                       # Energy for activate commands per rank (pJ)
system.mem_ctrls.rank1.preEnergy            629780250                       # Energy for precharge commands per rank (pJ)
system.mem_ctrls.rank1.readEnergy          4594397220                       # Energy for read commands per rank (pJ)
system.mem_ctrls.rank1.writeEnergy         2538261540                       # Energy for write commands per rank (pJ)
system.mem_ctrls.rank1.refreshEnergy     4568619120.000001                       # Energy for refresh commands per rank (pJ)
system.mem_ctrls.rank1.actBackEnergy      25941769890                       # Energy for active background per rank (pJ)
system.mem_ctrls.rank1.preBackEnergy        378796320                       # Energy for precharge background per rank (pJ)
system.mem_ctrls.rank1.actPowerDownEnergy            0                       # Energy for active power-down per rank (pJ)
system.mem_ctrls.rank1.prePowerDownEnergy            0                       # Energy for precharge power-down per rank (pJ)
system.mem_ctrls.rank1.selfRefreshEnergy            0                       # Energy for self refresh per rank (pJ)
system.mem_ctrls.rank1.totalEnergy        39836514480                       # Total energy per rank (pJ)
system.mem_ctrls.rank1.averagePower        688.304509                       # Core power per rank (mW)
system.mem_ctrls.rank1.totalIdleTime                0                       # Total Idle time Per DRAM Rank
system.mem_ctrls.rank1.memoryStateTime::IDLE    743413750                       # Time in different power states
system.mem_ctrls.rank1.memoryStateTime::REF   1932580000                       # Time in different power states
system.mem_ctrls.rank1.memoryStateTime::SREF            0                       # Time in different power states
system.mem_ctrls.rank1.memoryStateTime::PRE_PDN            0                       # Time in different power states
system.mem_ctrls.rank1.memoryStateTime::ACT  55200300750                       # Time in different power states
system.mem_ctrls.rank1.memoryStateTime::ACT_PDN            0                       # Time in different power states
system.mem_ctrls.rank0.actEnergy           1313474400                       # Energy for activate commands per rank (pJ)
system.mem_ctrls.rank0.preEnergy            698105430                       # Energy for precharge commands per rank (pJ)
system.mem_ctrls.rank0.readEnergy          4874170980                       # Energy for read commands per rank (pJ)
system.mem_ctrls.rank0.writeEnergy         2474525340                       # Energy for write commands per rank (pJ)
system.mem_ctrls.rank0.refreshEnergy     4568619120.000001                       # Energy for refresh commands per rank (pJ)
system.mem_ctrls.rank0.actBackEnergy      25785602430                       # Energy for active background per rank (pJ)
system.mem_ctrls.rank0.preBackEnergy        510305760                       # Energy for precharge background per rank (pJ)
system.mem_ctrls.rank0.actPowerDownEnergy            0                       # Energy for active power-down per rank (pJ)
system.mem_ctrls.rank0.prePowerDownEnergy            0                       # Energy for precharge power-down per rank (pJ)
system.mem_ctrls.rank0.selfRefreshEnergy            0                       # Energy for self refresh per rank (pJ)
system.mem_ctrls.rank0.totalEnergy        40224803460                       # Total energy per rank (pJ)
system.mem_ctrls.rank0.averagePower        695.013456                       # Core power per rank (mW)
system.mem_ctrls.rank0.totalIdleTime                0                       # Total Idle time Per DRAM Rank
system.mem_ctrls.rank0.memoryStateTime::IDLE   1048167500                       # Time in different power states
system.mem_ctrls.rank0.memoryStateTime::REF   1932580000                       # Time in different power states
system.mem_ctrls.rank0.memoryStateTime::SREF            0                       # Time in different power states
system.mem_ctrls.rank0.memoryStateTime::PRE_PDN            0                       # Time in different power states
system.mem_ctrls.rank0.memoryStateTime::ACT  54895547000                       # Time in different power states
system.mem_ctrls.rank0.memoryStateTime::ACT_PDN            0                       # Time in different power states
system.mem_ctrls.power_state.pwrStateResidencyTicks::UNDEFINED  57876294500                       # Cumulative time (in ticks) in various power states
system.cpu_clk_domain.clock                       500                       # Clock period in ticks
system.tol2bus.trans_dist::ReadResp           1924312                       # Transaction distribution
system.tol2bus.trans_dist::WritebackDirty      2231226                       # Transaction distribution
system.tol2bus.trans_dist::WritebackClean      1500641                       # Transaction distribution
system.tol2bus.trans_dist::CleanEvict          611511                       # Transaction distribution
system.tol2bus.trans_dist::ReadExReq          1086275                       # Transaction distribution
system.tol2bus.trans_dist::ReadExResp         1086273                       # Transaction distribution
system.tol2bus.trans_dist::ReadCleanReq       1500674                       # Transaction distribution
system.tol2bus.trans_dist::ReadSharedReq       423639                       # Transaction distribution
system.tol2bus.pkt_count_system.cpu0.icache.mem_side::system.l2.cpu_side      4468638                       # Packet count per connected master and slave (bytes)
system.tol2bus.pkt_count_system.cpu0.dcache.mem_side::system.l2.cpu_side      1770984                       # Packet count per connected master and slave (bytes)
system.tol2bus.pkt_count_system.cpu1.icache.mem_side::system.l2.cpu_side        33350                       # Packet count per connected master and slave (bytes)
system.tol2bus.pkt_count_system.cpu1.dcache.mem_side::system.l2.cpu_side      2758722                       # Packet count per connected master and slave (bytes)
system.tol2bus.pkt_count::total               9031694                       # Packet count per connected master and slave (bytes)
system.tol2bus.pkt_size_system.cpu0.icache.mem_side::system.l2.cpu_side    190661504                       # Cumulative packet size per connected master and slave (bytes)
system.tol2bus.pkt_size_system.cpu0.dcache.mem_side::system.l2.cpu_side     60691392                       # Cumulative packet size per connected master and slave (bytes)
system.tol2bus.pkt_size_system.cpu1.icache.mem_side::system.l2.cpu_side      1422592                       # Cumulative packet size per connected master and slave (bytes)
system.tol2bus.pkt_size_system.cpu1.dcache.mem_side::system.l2.cpu_side    117278528                       # Cumulative packet size per connected master and slave (bytes)
system.tol2bus.pkt_size::total              370054016                       # Cumulative packet size per connected master and slave (bytes)
system.tol2bus.snoops                         1332857                       # Total snoops (count)
system.tol2bus.snoopTraffic                  61462912                       # Total snoop traffic (bytes)
system.tol2bus.snoop_fanout::samples          4343445                       # Request fanout histogram
system.tol2bus.snoop_fanout::mean            0.000461                       # Request fanout histogram
system.tol2bus.snoop_fanout::stdev           0.021475                       # Request fanout histogram
system.tol2bus.snoop_fanout::underflows             0      0.00%      0.00% # Request fanout histogram
system.tol2bus.snoop_fanout::0                4341441     99.95%     99.95% # Request fanout histogram
system.tol2bus.snoop_fanout::1                   2004      0.05%    100.00% # Request fanout histogram
system.tol2bus.snoop_fanout::2                      0      0.00%    100.00% # Request fanout histogram
system.tol2bus.snoop_fanout::3                      0      0.00%    100.00% # Request fanout histogram
system.tol2bus.snoop_fanout::4                      0      0.00%    100.00% # Request fanout histogram
system.tol2bus.snoop_fanout::5                      0      0.00%    100.00% # Request fanout histogram
system.tol2bus.snoop_fanout::6                      0      0.00%    100.00% # Request fanout histogram
system.tol2bus.snoop_fanout::7                      0      0.00%    100.00% # Request fanout histogram
system.tol2bus.snoop_fanout::8                      0      0.00%    100.00% # Request fanout histogram
system.tol2bus.snoop_fanout::overflows              0      0.00%    100.00% # Request fanout histogram
system.tol2bus.snoop_fanout::min_value              0                       # Request fanout histogram
system.tol2bus.snoop_fanout::max_value              1                       # Request fanout histogram
system.tol2bus.snoop_fanout::total            4343445                       # Request fanout histogram
system.tol2bus.reqLayer0.occupancy         5782063500                       # Layer occupancy (ticks)
system.tol2bus.reqLayer0.utilization             10.0                       # Layer utilization (%)
system.tol2bus.respLayer5.occupancy        1385799612                       # Layer occupancy (ticks)
system.tol2bus.respLayer5.utilization             2.4                       # Layer utilization (%)
system.tol2bus.respLayer4.occupancy          16692980                       # Layer occupancy (ticks)
system.tol2bus.respLayer4.utilization             0.0                       # Layer utilization (%)
system.tol2bus.respLayer1.occupancy         885565368                       # Layer occupancy (ticks)
system.tol2bus.respLayer1.utilization             1.5                       # Layer utilization (%)
system.tol2bus.respLayer0.occupancy        2234352947                       # Layer occupancy (ticks)
system.tol2bus.respLayer0.utilization             3.9                       # Layer utilization (%)
system.tol2bus.power_state.pwrStateResidencyTicks::UNDEFINED  57876294500                       # Cumulative time (in ticks) in various power states

---------- End Simulation Statistics   ----------
