
---------- Begin Simulation Statistics ----------
final_tick                                33402176500                       # Number of ticks from beginning of simulation (restored from checkpoints and never reset)
host_inst_rate                                 192584                       # Simulator instruction rate (inst/s)
host_mem_usage                                4425400                       # Number of bytes of host memory used
host_op_rate                                   364300                       # Simulator op (including micro ops) rate (op/s)
host_seconds                                    81.51                       # Real time elapsed on the host
host_tick_rate                              409782002                       # Simulator tick rate (ticks/s)
sim_freq                                 1000000000000                       # Frequency of simulated ticks
sim_insts                                    15697903                       # Number of instructions simulated
sim_ops                                      29694880                       # Number of ops (including micro ops) simulated
sim_seconds                                  0.033402                       # Number of seconds simulated
sim_ticks                                 33402176500                       # Number of ticks simulated
system.cpu0.branchPred.BTBCorrect                   0                       # Number of correct BTB predictions (this stat may not work properly.
system.cpu0.branchPred.BTBHitPct                  nan                       # BTB Hit Percentage
system.cpu0.branchPred.BTBHits                      0                       # Number of BTB hits
system.cpu0.branchPred.BTBLookups                   0                       # Number of BTB lookups
system.cpu0.branchPred.RASInCorrect                 0                       # Number of incorrect RAS predictions.
system.cpu0.branchPred.condIncorrect               39                       # Number of conditional branches incorrect
system.cpu0.branchPred.condPredicted               80                       # Number of conditional branches predicted
system.cpu0.branchPred.indirectHits                 0                       # Number of indirect target hits.
system.cpu0.branchPred.indirectLookups             24                       # Number of indirect predictor lookups.
system.cpu0.branchPred.indirectMisses              24                       # Number of indirect misses.
system.cpu0.branchPred.lookups                     80                       # Number of BP lookups
system.cpu0.branchPred.usedRAS                      0                       # Number of times the RAS was used to get a target.
system.cpu0.branchPredindirectMispredicted           15                       # Number of mispredicted indirect branches.
system.cpu0.committedInsts                   10000000                       # Number of instructions committed
system.cpu0.committedOps                     18916380                       # Number of ops (including micro ops) committed
system.cpu0.cpi                              6.680435                       # CPI: cycles per instruction
system.cpu0.discardedOps                      3502536                       # Number of ops (including micro ops) which were discarded before commit
system.cpu0.dtb.rdAccesses                    2501867                       # TLB accesses on read requests
system.cpu0.dtb.rdMisses                        32881                       # TLB misses on read requests
system.cpu0.dtb.wrAccesses                    1828767                       # TLB accesses on write requests
system.cpu0.dtb.wrMisses                         1220                       # TLB misses on write requests
system.cpu0.fetch2.amo_instructions                 0                       # Number of memory atomic instructions successfully decoded
system.cpu0.fetch2.fp_instructions                  0                       # Number of floating point instructions successfully decoded
system.cpu0.fetch2.int_instructions                 8                       # Number of integer instructions successfully decoded
system.cpu0.fetch2.load_instructions                0                       # Number of memory load instructions successfully decoded
system.cpu0.fetch2.store_instructions               0                       # Number of memory store instructions successfully decoded
system.cpu0.fetch2.vec_instructions                 0                       # Number of SIMD instructions successfully decoded
system.cpu0.idleCycles                       34313270                       # Total number of cycles that the object has spent stopped
system.cpu0.ipc                              0.149691                       # IPC: instructions per cycle
system.cpu0.itb.rdAccesses                          0                       # TLB accesses on read requests
system.cpu0.itb.rdMisses                            0                       # TLB misses on read requests
system.cpu0.itb.wrAccesses                    3365913                       # TLB accesses on write requests
system.cpu0.itb.wrMisses                          209                       # TLB misses on write requests
system.cpu0.numCycles                        66804353                       # number of cpu cycles simulated
system.cpu0.numFetchSuspends                        0                       # Number of times Execute suspended instruction fetching
system.cpu0.numWorkItemsCompleted                   0                       # number of work items this cpu completed
system.cpu0.numWorkItemsStarted                     0                       # number of work items this cpu started
system.cpu0.op_class_0::No_OpClass              38775      0.20%      0.20% # Class of committed instruction
system.cpu0.op_class_0::IntAlu               14860976     78.56%     78.77% # Class of committed instruction
system.cpu0.op_class_0::IntMult                 41062      0.22%     78.98% # Class of committed instruction
system.cpu0.op_class_0::IntDiv                   1365      0.01%     78.99% # Class of committed instruction
system.cpu0.op_class_0::FloatAdd                24884      0.13%     79.12% # Class of committed instruction
system.cpu0.op_class_0::FloatCmp                    0      0.00%     79.12% # Class of committed instruction
system.cpu0.op_class_0::FloatCvt                  160      0.00%     79.12% # Class of committed instruction
system.cpu0.op_class_0::FloatMult                   0      0.00%     79.12% # Class of committed instruction
system.cpu0.op_class_0::FloatMultAcc                0      0.00%     79.12% # Class of committed instruction
system.cpu0.op_class_0::FloatDiv                    0      0.00%     79.12% # Class of committed instruction
system.cpu0.op_class_0::FloatMisc                   0      0.00%     79.12% # Class of committed instruction
system.cpu0.op_class_0::FloatSqrt                   0      0.00%     79.12% # Class of committed instruction
system.cpu0.op_class_0::SimdAdd                   946      0.01%     79.13% # Class of committed instruction
system.cpu0.op_class_0::SimdAddAcc                  0      0.00%     79.13% # Class of committed instruction
system.cpu0.op_class_0::SimdAlu                  1027      0.01%     79.13% # Class of committed instruction
system.cpu0.op_class_0::SimdCmp                    12      0.00%     79.13% # Class of committed instruction
system.cpu0.op_class_0::SimdCvt                 27378      0.14%     79.28% # Class of committed instruction
system.cpu0.op_class_0::SimdMisc               112708      0.60%     79.87% # Class of committed instruction
system.cpu0.op_class_0::SimdMult                    0      0.00%     79.87% # Class of committed instruction
system.cpu0.op_class_0::SimdMultAcc                 0      0.00%     79.87% # Class of committed instruction
system.cpu0.op_class_0::SimdShift                 446      0.00%     79.88% # Class of committed instruction
system.cpu0.op_class_0::SimdShiftAcc                0      0.00%     79.88% # Class of committed instruction
system.cpu0.op_class_0::SimdDiv                     0      0.00%     79.88% # Class of committed instruction
system.cpu0.op_class_0::SimdSqrt                    0      0.00%     79.88% # Class of committed instruction
system.cpu0.op_class_0::SimdFloatAdd                0      0.00%     79.88% # Class of committed instruction
system.cpu0.op_class_0::SimdFloatAlu                0      0.00%     79.88% # Class of committed instruction
system.cpu0.op_class_0::SimdFloatCmp                0      0.00%     79.88% # Class of committed instruction
system.cpu0.op_class_0::SimdFloatCvt                0      0.00%     79.88% # Class of committed instruction
system.cpu0.op_class_0::SimdFloatDiv                0      0.00%     79.88% # Class of committed instruction
system.cpu0.op_class_0::SimdFloatMisc               0      0.00%     79.88% # Class of committed instruction
system.cpu0.op_class_0::SimdFloatMult               0      0.00%     79.88% # Class of committed instruction
system.cpu0.op_class_0::SimdFloatMultAcc            0      0.00%     79.88% # Class of committed instruction
system.cpu0.op_class_0::SimdFloatSqrt               0      0.00%     79.88% # Class of committed instruction
system.cpu0.op_class_0::SimdReduceAdd               0      0.00%     79.88% # Class of committed instruction
system.cpu0.op_class_0::SimdReduceAlu               0      0.00%     79.88% # Class of committed instruction
system.cpu0.op_class_0::SimdReduceCmp               0      0.00%     79.88% # Class of committed instruction
system.cpu0.op_class_0::SimdFloatReduceAdd            0      0.00%     79.88% # Class of committed instruction
system.cpu0.op_class_0::SimdFloatReduceCmp            0      0.00%     79.88% # Class of committed instruction
system.cpu0.op_class_0::SimdAes                     0      0.00%     79.88% # Class of committed instruction
system.cpu0.op_class_0::SimdAesMix                  0      0.00%     79.88% # Class of committed instruction
system.cpu0.op_class_0::SimdSha1Hash                0      0.00%     79.88% # Class of committed instruction
system.cpu0.op_class_0::SimdSha1Hash2               0      0.00%     79.88% # Class of committed instruction
system.cpu0.op_class_0::SimdSha256Hash              0      0.00%     79.88% # Class of committed instruction
system.cpu0.op_class_0::SimdSha256Hash2             0      0.00%     79.88% # Class of committed instruction
system.cpu0.op_class_0::SimdShaSigma2               0      0.00%     79.88% # Class of committed instruction
system.cpu0.op_class_0::SimdShaSigma3               0      0.00%     79.88% # Class of committed instruction
system.cpu0.op_class_0::SimdPredAlu                 0      0.00%     79.88% # Class of committed instruction
system.cpu0.op_class_0::MemRead               2046688     10.82%     90.70% # Class of committed instruction
system.cpu0.op_class_0::MemWrite              1656607      8.76%     99.45% # Class of committed instruction
system.cpu0.op_class_0::FloatMemRead            64978      0.34%     99.80% # Class of committed instruction
system.cpu0.op_class_0::FloatMemWrite           38368      0.20%    100.00% # Class of committed instruction
system.cpu0.op_class_0::IprAccess                   0      0.00%    100.00% # Class of committed instruction
system.cpu0.op_class_0::InstPrefetch                0      0.00%    100.00% # Class of committed instruction
system.cpu0.op_class_0::total                18916380                       # Class of committed instruction
system.cpu0.tickCycles                       32491083                       # Number of cycles that the object actually ticked
system.cpu0.workload.numSyscalls                   39                       # Number of system calls
system.cpu1.branchPred.BTBCorrect                   0                       # Number of correct BTB predictions (this stat may not work properly.
system.cpu1.branchPred.BTBHitPct                  nan                       # BTB Hit Percentage
system.cpu1.branchPred.BTBHits                      0                       # Number of BTB hits
system.cpu1.branchPred.BTBLookups                   0                       # Number of BTB lookups
system.cpu1.branchPred.RASInCorrect                 0                       # Number of incorrect RAS predictions.
system.cpu1.branchPred.condIncorrect               36                       # Number of conditional branches incorrect
system.cpu1.branchPred.condPredicted               77                       # Number of conditional branches predicted
system.cpu1.branchPred.indirectHits                 0                       # Number of indirect target hits.
system.cpu1.branchPred.indirectLookups             24                       # Number of indirect predictor lookups.
system.cpu1.branchPred.indirectMisses              24                       # Number of indirect misses.
system.cpu1.branchPred.lookups                     77                       # Number of BP lookups
system.cpu1.branchPred.usedRAS                      0                       # Number of times the RAS was used to get a target.
system.cpu1.branchPredindirectMispredicted           15                       # Number of mispredicted indirect branches.
system.cpu1.committedInsts                    5697903                       # Number of instructions committed
system.cpu1.committedOps                     10778500                       # Number of ops (including micro ops) committed
system.cpu1.cpi                             11.724354                       # CPI: cycles per instruction
system.cpu1.discardedOps                      2003770                       # Number of ops (including micro ops) which were discarded before commit
system.cpu1.dtb.rdAccesses                    1442030                       # TLB accesses on read requests
system.cpu1.dtb.rdMisses                        19757                       # TLB misses on read requests
system.cpu1.dtb.wrAccesses                    1053612                       # TLB accesses on write requests
system.cpu1.dtb.wrMisses                          741                       # TLB misses on write requests
system.cpu1.fetch2.amo_instructions                 0                       # Number of memory atomic instructions successfully decoded
system.cpu1.fetch2.fp_instructions                  0                       # Number of floating point instructions successfully decoded
system.cpu1.fetch2.int_instructions                 8                       # Number of integer instructions successfully decoded
system.cpu1.fetch2.load_instructions                0                       # Number of memory load instructions successfully decoded
system.cpu1.fetch2.store_instructions               0                       # Number of memory store instructions successfully decoded
system.cpu1.fetch2.vec_instructions                 0                       # Number of SIMD instructions successfully decoded
system.cpu1.idleCycles                       48203841                       # Total number of cycles that the object has spent stopped
system.cpu1.ipc                              0.085293                       # IPC: instructions per cycle
system.cpu1.itb.rdAccesses                          0                       # TLB accesses on read requests
system.cpu1.itb.rdMisses                            0                       # TLB misses on read requests
system.cpu1.itb.wrAccesses                    1893142                       # TLB accesses on write requests
system.cpu1.itb.wrMisses                          197                       # TLB misses on write requests
system.cpu1.numCycles                        66804230                       # number of cpu cycles simulated
system.cpu1.numFetchSuspends                        0                       # Number of times Execute suspended instruction fetching
system.cpu1.numWorkItemsCompleted                   0                       # number of work items this cpu completed
system.cpu1.numWorkItemsStarted                     0                       # number of work items this cpu started
system.cpu1.op_class_0::No_OpClass              23160      0.21%      0.21% # Class of committed instruction
system.cpu1.op_class_0::IntAlu                8441115     78.31%     78.53% # Class of committed instruction
system.cpu1.op_class_0::IntMult                 21279      0.20%     78.73% # Class of committed instruction
system.cpu1.op_class_0::IntDiv                   1365      0.01%     78.74% # Class of committed instruction
system.cpu1.op_class_0::FloatAdd                14425      0.13%     78.87% # Class of committed instruction
system.cpu1.op_class_0::FloatCmp                    0      0.00%     78.87% # Class of committed instruction
system.cpu1.op_class_0::FloatCvt                  160      0.00%     78.87% # Class of committed instruction
system.cpu1.op_class_0::FloatMult                   0      0.00%     78.87% # Class of committed instruction
system.cpu1.op_class_0::FloatMultAcc                0      0.00%     78.87% # Class of committed instruction
system.cpu1.op_class_0::FloatDiv                    0      0.00%     78.87% # Class of committed instruction
system.cpu1.op_class_0::FloatMisc                   0      0.00%     78.87% # Class of committed instruction
system.cpu1.op_class_0::FloatSqrt                   0      0.00%     78.87% # Class of committed instruction
system.cpu1.op_class_0::SimdAdd                   946      0.01%     78.88% # Class of committed instruction
system.cpu1.op_class_0::SimdAddAcc                  0      0.00%     78.88% # Class of committed instruction
system.cpu1.op_class_0::SimdAlu                  1027      0.01%     78.89% # Class of committed instruction
system.cpu1.op_class_0::SimdCmp                    12      0.00%     78.89% # Class of committed instruction
system.cpu1.op_class_0::SimdCvt                 16400      0.15%     79.05% # Class of committed instruction
system.cpu1.op_class_0::SimdMisc                65596      0.61%     79.65% # Class of committed instruction
system.cpu1.op_class_0::SimdMult                    0      0.00%     79.65% # Class of committed instruction
system.cpu1.op_class_0::SimdMultAcc                 0      0.00%     79.65% # Class of committed instruction
system.cpu1.op_class_0::SimdShift                 446      0.00%     79.66% # Class of committed instruction
system.cpu1.op_class_0::SimdShiftAcc                0      0.00%     79.66% # Class of committed instruction
system.cpu1.op_class_0::SimdDiv                     0      0.00%     79.66% # Class of committed instruction
system.cpu1.op_class_0::SimdSqrt                    0      0.00%     79.66% # Class of committed instruction
system.cpu1.op_class_0::SimdFloatAdd                0      0.00%     79.66% # Class of committed instruction
system.cpu1.op_class_0::SimdFloatAlu                0      0.00%     79.66% # Class of committed instruction
system.cpu1.op_class_0::SimdFloatCmp                0      0.00%     79.66% # Class of committed instruction
system.cpu1.op_class_0::SimdFloatCvt                0      0.00%     79.66% # Class of committed instruction
system.cpu1.op_class_0::SimdFloatDiv                0      0.00%     79.66% # Class of committed instruction
system.cpu1.op_class_0::SimdFloatMisc               0      0.00%     79.66% # Class of committed instruction
system.cpu1.op_class_0::SimdFloatMult               0      0.00%     79.66% # Class of committed instruction
system.cpu1.op_class_0::SimdFloatMultAcc            0      0.00%     79.66% # Class of committed instruction
system.cpu1.op_class_0::SimdFloatSqrt               0      0.00%     79.66% # Class of committed instruction
system.cpu1.op_class_0::SimdReduceAdd               0      0.00%     79.66% # Class of committed instruction
system.cpu1.op_class_0::SimdReduceAlu               0      0.00%     79.66% # Class of committed instruction
system.cpu1.op_class_0::SimdReduceCmp               0      0.00%     79.66% # Class of committed instruction
system.cpu1.op_class_0::SimdFloatReduceAdd            0      0.00%     79.66% # Class of committed instruction
system.cpu1.op_class_0::SimdFloatReduceCmp            0      0.00%     79.66% # Class of committed instruction
system.cpu1.op_class_0::SimdAes                     0      0.00%     79.66% # Class of committed instruction
system.cpu1.op_class_0::SimdAesMix                  0      0.00%     79.66% # Class of committed instruction
system.cpu1.op_class_0::SimdSha1Hash                0      0.00%     79.66% # Class of committed instruction
system.cpu1.op_class_0::SimdSha1Hash2               0      0.00%     79.66% # Class of committed instruction
system.cpu1.op_class_0::SimdSha256Hash              0      0.00%     79.66% # Class of committed instruction
system.cpu1.op_class_0::SimdSha256Hash2             0      0.00%     79.66% # Class of committed instruction
system.cpu1.op_class_0::SimdShaSigma2               0      0.00%     79.66% # Class of committed instruction
system.cpu1.op_class_0::SimdShaSigma3               0      0.00%     79.66% # Class of committed instruction
system.cpu1.op_class_0::SimdPredAlu                 0      0.00%     79.66% # Class of committed instruction
system.cpu1.op_class_0::MemRead               1178465     10.93%     90.59% # Class of committed instruction
system.cpu1.op_class_0::MemWrite               953268      8.84%     99.44% # Class of committed instruction
system.cpu1.op_class_0::FloatMemRead            38234      0.35%     99.79% # Class of committed instruction
system.cpu1.op_class_0::FloatMemWrite           22602      0.21%    100.00% # Class of committed instruction
system.cpu1.op_class_0::IprAccess                   0      0.00%    100.00% # Class of committed instruction
system.cpu1.op_class_0::InstPrefetch                0      0.00%    100.00% # Class of committed instruction
system.cpu1.op_class_0::total                10778500                       # Class of committed instruction
system.cpu1.tickCycles                       18600389                       # Number of cycles that the object actually ticked
system.cpu1.workload.numSyscalls                   36                       # Number of system calls
system.membus.snoop_filter.hit_multi_requests            0                       # Number of requests hitting in the snoop filter with multiple (>1) holders of the requested data.
system.membus.snoop_filter.hit_multi_snoops            0                       # Number of snoops hitting in the snoop filter with multiple (>1) holders of the requested data.
system.membus.snoop_filter.hit_single_requests       314245                       # Number of requests hitting in the snoop filter with a single holder of the requested data.
system.membus.snoop_filter.hit_single_snoops            0                       # Number of snoops hitting in the snoop filter with a single holder of the requested data.
system.membus.snoop_filter.tot_requests        629515                       # Total number of requests made to the snoop filter.
system.membus.snoop_filter.tot_snoops               0                       # Total number of snoops made to the snoop filter.
system.tol2bus.snoop_filter.hit_multi_requests            0                       # Number of requests hitting in the snoop filter with multiple (>1) holders of the requested data.
system.tol2bus.snoop_filter.hit_multi_snoops            0                       # Number of snoops hitting in the snoop filter with multiple (>1) holders of the requested data.
system.tol2bus.snoop_filter.hit_single_requests      3567190                       # Number of requests hitting in the snoop filter with a single holder of the requested data.
system.tol2bus.snoop_filter.hit_single_snoops         1098                       # Number of snoops hitting in the snoop filter with a single holder of the requested data.
system.tol2bus.snoop_filter.tot_requests      7134445                       # Total number of requests made to the snoop filter.
system.tol2bus.snoop_filter.tot_snoops           1098                       # Total number of snoops made to the snoop filter.
system.membus.trans_dist::ReadResp             252083                       # Transaction distribution
system.membus.trans_dist::WritebackDirty        80435                       # Transaction distribution
system.membus.trans_dist::CleanEvict           233810                       # Transaction distribution
system.membus.trans_dist::ReadExReq             63187                       # Transaction distribution
system.membus.trans_dist::ReadExResp            63187                       # Transaction distribution
system.membus.trans_dist::ReadSharedReq        252083                       # Transaction distribution
system.membus.pkt_count_system.l2.mem_side::system.mem_ctrls.port       944785                       # Packet count per connected master and slave (bytes)
system.membus.pkt_count_system.l2.mem_side::total       944785                       # Packet count per connected master and slave (bytes)
system.membus.pkt_count::total                 944785                       # Packet count per connected master and slave (bytes)
system.membus.pkt_size_system.l2.mem_side::system.mem_ctrls.port     25325120                       # Cumulative packet size per connected master and slave (bytes)
system.membus.pkt_size_system.l2.mem_side::total     25325120                       # Cumulative packet size per connected master and slave (bytes)
system.membus.pkt_size::total                25325120                       # Cumulative packet size per connected master and slave (bytes)
system.membus.snoops                                0                       # Total snoops (count)
system.membus.snoopTraffic                          0                       # Total snoop traffic (bytes)
system.membus.snoop_fanout::samples            315270                       # Request fanout histogram
system.membus.snoop_fanout::mean                    0                       # Request fanout histogram
system.membus.snoop_fanout::stdev                   0                       # Request fanout histogram
system.membus.snoop_fanout::underflows              0      0.00%      0.00% # Request fanout histogram
system.membus.snoop_fanout::0                  315270    100.00%    100.00% # Request fanout histogram
system.membus.snoop_fanout::1                       0      0.00%    100.00% # Request fanout histogram
system.membus.snoop_fanout::overflows               0      0.00%    100.00% # Request fanout histogram
system.membus.snoop_fanout::min_value               0                       # Request fanout histogram
system.membus.snoop_fanout::max_value               0                       # Request fanout histogram
system.membus.snoop_fanout::total              315270                       # Request fanout histogram
system.membus.reqLayer4.occupancy          1003441000                       # Layer occupancy (ticks)
system.membus.reqLayer4.utilization               3.0                       # Layer utilization (%)
system.membus.respLayer1.occupancy         1674997250                       # Layer occupancy (ticks)
system.membus.respLayer1.utilization              5.0                       # Layer utilization (%)
system.membus.power_state.pwrStateResidencyTicks::UNDEFINED  33402176500                       # Cumulative time (in ticks) in various power states
system.voltage_domain.voltage                       1                       # Voltage in Volts
system.clk_domain.clock                          1000                       # Clock period in ticks
system.cpu0.icache.demand_hits::.cpu0.inst      1730293                       # number of demand (read+write) hits
system.cpu0.icache.demand_hits::total         1730293                       # number of demand (read+write) hits
system.cpu0.icache.overall_hits::.cpu0.inst      1730293                       # number of overall hits
system.cpu0.icache.overall_hits::total        1730293                       # number of overall hits
system.cpu0.icache.demand_misses::.cpu0.inst      1635567                       # number of demand (read+write) misses
system.cpu0.icache.demand_misses::total       1635567                       # number of demand (read+write) misses
system.cpu0.icache.overall_misses::.cpu0.inst      1635567                       # number of overall misses
system.cpu0.icache.overall_misses::total      1635567                       # number of overall misses
system.cpu0.icache.demand_miss_latency::.cpu0.inst  21652103500                       # number of demand (read+write) miss cycles
system.cpu0.icache.demand_miss_latency::total  21652103500                       # number of demand (read+write) miss cycles
system.cpu0.icache.overall_miss_latency::.cpu0.inst  21652103500                       # number of overall miss cycles
system.cpu0.icache.overall_miss_latency::total  21652103500                       # number of overall miss cycles
system.cpu0.icache.demand_accesses::.cpu0.inst      3365860                       # number of demand (read+write) accesses
system.cpu0.icache.demand_accesses::total      3365860                       # number of demand (read+write) accesses
system.cpu0.icache.overall_accesses::.cpu0.inst      3365860                       # number of overall (read+write) accesses
system.cpu0.icache.overall_accesses::total      3365860                       # number of overall (read+write) accesses
system.cpu0.icache.demand_miss_rate::.cpu0.inst     0.485928                       # miss rate for demand accesses
system.cpu0.icache.demand_miss_rate::total     0.485928                       # miss rate for demand accesses
system.cpu0.icache.overall_miss_rate::.cpu0.inst     0.485928                       # miss rate for overall accesses
system.cpu0.icache.overall_miss_rate::total     0.485928                       # miss rate for overall accesses
system.cpu0.icache.demand_avg_miss_latency::.cpu0.inst 13238.285867                       # average overall miss latency
system.cpu0.icache.demand_avg_miss_latency::total 13238.285867                       # average overall miss latency
system.cpu0.icache.overall_avg_miss_latency::.cpu0.inst 13238.285867                       # average overall miss latency
system.cpu0.icache.overall_avg_miss_latency::total 13238.285867                       # average overall miss latency
system.cpu0.icache.blocked_cycles::no_mshrs            0                       # number of cycles access was blocked
system.cpu0.icache.blocked_cycles::no_targets            0                       # number of cycles access was blocked
system.cpu0.icache.blocked::no_mshrs                0                       # number of cycles access was blocked
system.cpu0.icache.blocked::no_targets              0                       # number of cycles access was blocked
system.cpu0.icache.avg_blocked_cycles::no_mshrs          nan                       # average number of cycles each access was blocked
system.cpu0.icache.avg_blocked_cycles::no_targets          nan                       # average number of cycles each access was blocked
system.cpu0.icache.writebacks::.writebacks      1635551                       # number of writebacks
system.cpu0.icache.writebacks::total          1635551                       # number of writebacks
system.cpu0.icache.demand_mshr_misses::.cpu0.inst      1635567                       # number of demand (read+write) MSHR misses
system.cpu0.icache.demand_mshr_misses::total      1635567                       # number of demand (read+write) MSHR misses
system.cpu0.icache.overall_mshr_misses::.cpu0.inst      1635567                       # number of overall MSHR misses
system.cpu0.icache.overall_mshr_misses::total      1635567                       # number of overall MSHR misses
system.cpu0.icache.demand_mshr_miss_latency::.cpu0.inst  20016536500                       # number of demand (read+write) MSHR miss cycles
system.cpu0.icache.demand_mshr_miss_latency::total  20016536500                       # number of demand (read+write) MSHR miss cycles
system.cpu0.icache.overall_mshr_miss_latency::.cpu0.inst  20016536500                       # number of overall MSHR miss cycles
system.cpu0.icache.overall_mshr_miss_latency::total  20016536500                       # number of overall MSHR miss cycles
system.cpu0.icache.demand_mshr_miss_rate::.cpu0.inst     0.485928                       # mshr miss rate for demand accesses
system.cpu0.icache.demand_mshr_miss_rate::total     0.485928                       # mshr miss rate for demand accesses
system.cpu0.icache.overall_mshr_miss_rate::.cpu0.inst     0.485928                       # mshr miss rate for overall accesses
system.cpu0.icache.overall_mshr_miss_rate::total     0.485928                       # mshr miss rate for overall accesses
system.cpu0.icache.demand_avg_mshr_miss_latency::.cpu0.inst 12238.285867                       # average overall mshr miss latency
system.cpu0.icache.demand_avg_mshr_miss_latency::total 12238.285867                       # average overall mshr miss latency
system.cpu0.icache.overall_avg_mshr_miss_latency::.cpu0.inst 12238.285867                       # average overall mshr miss latency
system.cpu0.icache.overall_avg_mshr_miss_latency::total 12238.285867                       # average overall mshr miss latency
system.cpu0.icache.replacements               1635551                       # number of replacements
system.cpu0.icache.ReadReq_hits::.cpu0.inst      1730293                       # number of ReadReq hits
system.cpu0.icache.ReadReq_hits::total        1730293                       # number of ReadReq hits
system.cpu0.icache.ReadReq_misses::.cpu0.inst      1635567                       # number of ReadReq misses
system.cpu0.icache.ReadReq_misses::total      1635567                       # number of ReadReq misses
system.cpu0.icache.ReadReq_miss_latency::.cpu0.inst  21652103500                       # number of ReadReq miss cycles
system.cpu0.icache.ReadReq_miss_latency::total  21652103500                       # number of ReadReq miss cycles
system.cpu0.icache.ReadReq_accesses::.cpu0.inst      3365860                       # number of ReadReq accesses(hits+misses)
system.cpu0.icache.ReadReq_accesses::total      3365860                       # number of ReadReq accesses(hits+misses)
system.cpu0.icache.ReadReq_miss_rate::.cpu0.inst     0.485928                       # miss rate for ReadReq accesses
system.cpu0.icache.ReadReq_miss_rate::total     0.485928                       # miss rate for ReadReq accesses
system.cpu0.icache.ReadReq_avg_miss_latency::.cpu0.inst 13238.285867                       # average ReadReq miss latency
system.cpu0.icache.ReadReq_avg_miss_latency::total 13238.285867                       # average ReadReq miss latency
system.cpu0.icache.ReadReq_mshr_misses::.cpu0.inst      1635567                       # number of ReadReq MSHR misses
system.cpu0.icache.ReadReq_mshr_misses::total      1635567                       # number of ReadReq MSHR misses
system.cpu0.icache.ReadReq_mshr_miss_latency::.cpu0.inst  20016536500                       # number of ReadReq MSHR miss cycles
system.cpu0.icache.ReadReq_mshr_miss_latency::total  20016536500                       # number of ReadReq MSHR miss cycles
system.cpu0.icache.ReadReq_mshr_miss_rate::.cpu0.inst     0.485928                       # mshr miss rate for ReadReq accesses
system.cpu0.icache.ReadReq_mshr_miss_rate::total     0.485928                       # mshr miss rate for ReadReq accesses
system.cpu0.icache.ReadReq_avg_mshr_miss_latency::.cpu0.inst 12238.285867                       # average ReadReq mshr miss latency
system.cpu0.icache.ReadReq_avg_mshr_miss_latency::total 12238.285867                       # average ReadReq mshr miss latency
system.cpu0.icache.power_state.pwrStateResidencyTicks::UNDEFINED  33402176500                       # Cumulative time (in ticks) in various power states
system.cpu0.icache.tags.tagsinuse           15.999591                       # Cycle average of tags in use
system.cpu0.icache.tags.total_refs            3365860                       # Total number of references to valid blocks.
system.cpu0.icache.tags.sampled_refs          1635567                       # Sample count of references to valid blocks.
system.cpu0.icache.tags.avg_refs             2.057916                       # Average number of references to valid blocks.
system.cpu0.icache.tags.warmup_cycle            87500                       # Cycle when the warmup percentage was hit.
system.cpu0.icache.tags.occ_blocks::.cpu0.inst    15.999591                       # Average occupied blocks per requestor
system.cpu0.icache.tags.occ_percent::.cpu0.inst     0.999974                       # Average percentage of cache occupancy
system.cpu0.icache.tags.occ_percent::total     0.999974                       # Average percentage of cache occupancy
system.cpu0.icache.tags.occ_task_id_blocks::1024           16                       # Occupied blocks per task id
system.cpu0.icache.tags.age_task_id_blocks_1024::0           16                       # Occupied blocks per task id
system.cpu0.icache.tags.occ_task_id_percent::1024            1                       # Percentage of cache occupancy per task id
system.cpu0.icache.tags.tag_accesses         28562447                       # Number of tag accesses
system.cpu0.icache.tags.data_accesses        28562447                       # Number of data accesses
system.cpu0.icache.tags.power_state.pwrStateResidencyTicks::UNDEFINED  33402176500                       # Cumulative time (in ticks) in various power states
system.cpu0.dtb.walker.power_state.pwrStateResidencyTicks::UNDEFINED  33402176500                       # Cumulative time (in ticks) in various power states
system.cpu0.interrupts.clk_domain.clock          8000                       # Clock period in ticks
system.cpu0.itb_walker_cache.blocked_cycles::no_mshrs            0                       # number of cycles access was blocked
system.cpu0.itb_walker_cache.blocked_cycles::no_targets            0                       # number of cycles access was blocked
system.cpu0.itb_walker_cache.blocked::no_mshrs            0                       # number of cycles access was blocked
system.cpu0.itb_walker_cache.blocked::no_targets            0                       # number of cycles access was blocked
system.cpu0.itb_walker_cache.avg_blocked_cycles::no_mshrs          nan                       # average number of cycles each access was blocked
system.cpu0.itb_walker_cache.avg_blocked_cycles::no_targets          nan                       # average number of cycles each access was blocked
system.cpu0.itb_walker_cache.replacements            0                       # number of replacements
system.cpu0.itb_walker_cache.power_state.pwrStateResidencyTicks::UNDEFINED  33402176500                       # Cumulative time (in ticks) in various power states
system.cpu0.itb_walker_cache.tags.tagsinuse            0                       # Cycle average of tags in use
system.cpu0.itb_walker_cache.tags.total_refs            0                       # Total number of references to valid blocks.
system.cpu0.itb_walker_cache.tags.sampled_refs            0                       # Sample count of references to valid blocks.
system.cpu0.itb_walker_cache.tags.avg_refs          nan                       # Average number of references to valid blocks.
system.cpu0.itb_walker_cache.tags.warmup_cycle            0                       # Cycle when the warmup percentage was hit.
system.cpu0.itb_walker_cache.tags.tag_accesses            0                       # Number of tag accesses
system.cpu0.itb_walker_cache.tags.data_accesses            0                       # Number of data accesses
system.cpu0.itb_walker_cache.tags.power_state.pwrStateResidencyTicks::UNDEFINED  33402176500                       # Cumulative time (in ticks) in various power states
system.cpu0.dtb_walker_cache.blocked_cycles::no_mshrs            0                       # number of cycles access was blocked
system.cpu0.dtb_walker_cache.blocked_cycles::no_targets            0                       # number of cycles access was blocked
system.cpu0.dtb_walker_cache.blocked::no_mshrs            0                       # number of cycles access was blocked
system.cpu0.dtb_walker_cache.blocked::no_targets            0                       # number of cycles access was blocked
system.cpu0.dtb_walker_cache.avg_blocked_cycles::no_mshrs          nan                       # average number of cycles each access was blocked
system.cpu0.dtb_walker_cache.avg_blocked_cycles::no_targets          nan                       # average number of cycles each access was blocked
system.cpu0.dtb_walker_cache.replacements            0                       # number of replacements
system.cpu0.dtb_walker_cache.power_state.pwrStateResidencyTicks::UNDEFINED  33402176500                       # Cumulative time (in ticks) in various power states
system.cpu0.dtb_walker_cache.tags.tagsinuse            0                       # Cycle average of tags in use
system.cpu0.dtb_walker_cache.tags.total_refs            0                       # Total number of references to valid blocks.
system.cpu0.dtb_walker_cache.tags.sampled_refs            0                       # Sample count of references to valid blocks.
system.cpu0.dtb_walker_cache.tags.avg_refs          nan                       # Average number of references to valid blocks.
system.cpu0.dtb_walker_cache.tags.warmup_cycle            0                       # Cycle when the warmup percentage was hit.
system.cpu0.dtb_walker_cache.tags.tag_accesses            0                       # Number of tag accesses
system.cpu0.dtb_walker_cache.tags.data_accesses            0                       # Number of data accesses
system.cpu0.dtb_walker_cache.tags.power_state.pwrStateResidencyTicks::UNDEFINED  33402176500                       # Cumulative time (in ticks) in various power states
system.cpu0.dcache.demand_hits::.cpu0.data      3402052                       # number of demand (read+write) hits
system.cpu0.dcache.demand_hits::total         3402052                       # number of demand (read+write) hits
system.cpu0.dcache.overall_hits::.cpu0.data      3402052                       # number of overall hits
system.cpu0.dcache.overall_hits::total        3402052                       # number of overall hits
system.cpu0.dcache.demand_misses::.cpu0.data       722635                       # number of demand (read+write) misses
system.cpu0.dcache.demand_misses::total        722635                       # number of demand (read+write) misses
system.cpu0.dcache.overall_misses::.cpu0.data       722635                       # number of overall misses
system.cpu0.dcache.overall_misses::total       722635                       # number of overall misses
system.cpu0.dcache.demand_miss_latency::.cpu0.data  14107434000                       # number of demand (read+write) miss cycles
system.cpu0.dcache.demand_miss_latency::total  14107434000                       # number of demand (read+write) miss cycles
system.cpu0.dcache.overall_miss_latency::.cpu0.data  14107434000                       # number of overall miss cycles
system.cpu0.dcache.overall_miss_latency::total  14107434000                       # number of overall miss cycles
system.cpu0.dcache.demand_accesses::.cpu0.data      4124687                       # number of demand (read+write) accesses
system.cpu0.dcache.demand_accesses::total      4124687                       # number of demand (read+write) accesses
system.cpu0.dcache.overall_accesses::.cpu0.data      4124687                       # number of overall (read+write) accesses
system.cpu0.dcache.overall_accesses::total      4124687                       # number of overall (read+write) accesses
system.cpu0.dcache.demand_miss_rate::.cpu0.data     0.175198                       # miss rate for demand accesses
system.cpu0.dcache.demand_miss_rate::total     0.175198                       # miss rate for demand accesses
system.cpu0.dcache.overall_miss_rate::.cpu0.data     0.175198                       # miss rate for overall accesses
system.cpu0.dcache.overall_miss_rate::total     0.175198                       # miss rate for overall accesses
system.cpu0.dcache.demand_avg_miss_latency::.cpu0.data 19522.212459                       # average overall miss latency
system.cpu0.dcache.demand_avg_miss_latency::total 19522.212459                       # average overall miss latency
system.cpu0.dcache.overall_avg_miss_latency::.cpu0.data 19522.212459                       # average overall miss latency
system.cpu0.dcache.overall_avg_miss_latency::total 19522.212459                       # average overall miss latency
system.cpu0.dcache.blocked_cycles::no_mshrs            0                       # number of cycles access was blocked
system.cpu0.dcache.blocked_cycles::no_targets            0                       # number of cycles access was blocked
system.cpu0.dcache.blocked::no_mshrs                0                       # number of cycles access was blocked
system.cpu0.dcache.blocked::no_targets              0                       # number of cycles access was blocked
system.cpu0.dcache.avg_blocked_cycles::no_mshrs          nan                       # average number of cycles each access was blocked
system.cpu0.dcache.avg_blocked_cycles::no_targets          nan                       # average number of cycles each access was blocked
system.cpu0.dcache.writebacks::.writebacks       433656                       # number of writebacks
system.cpu0.dcache.writebacks::total           433656                       # number of writebacks
system.cpu0.dcache.demand_mshr_hits::.cpu0.data        85328                       # number of demand (read+write) MSHR hits
system.cpu0.dcache.demand_mshr_hits::total        85328                       # number of demand (read+write) MSHR hits
system.cpu0.dcache.overall_mshr_hits::.cpu0.data        85328                       # number of overall MSHR hits
system.cpu0.dcache.overall_mshr_hits::total        85328                       # number of overall MSHR hits
system.cpu0.dcache.demand_mshr_misses::.cpu0.data       637307                       # number of demand (read+write) MSHR misses
system.cpu0.dcache.demand_mshr_misses::total       637307                       # number of demand (read+write) MSHR misses
system.cpu0.dcache.overall_mshr_misses::.cpu0.data       637307                       # number of overall MSHR misses
system.cpu0.dcache.overall_mshr_misses::total       637307                       # number of overall MSHR misses
system.cpu0.dcache.demand_mshr_miss_latency::.cpu0.data  11094852500                       # number of demand (read+write) MSHR miss cycles
system.cpu0.dcache.demand_mshr_miss_latency::total  11094852500                       # number of demand (read+write) MSHR miss cycles
system.cpu0.dcache.overall_mshr_miss_latency::.cpu0.data  11094852500                       # number of overall MSHR miss cycles
system.cpu0.dcache.overall_mshr_miss_latency::total  11094852500                       # number of overall MSHR miss cycles
system.cpu0.dcache.demand_mshr_miss_rate::.cpu0.data     0.154510                       # mshr miss rate for demand accesses
system.cpu0.dcache.demand_mshr_miss_rate::total     0.154510                       # mshr miss rate for demand accesses
system.cpu0.dcache.overall_mshr_miss_rate::.cpu0.data     0.154510                       # mshr miss rate for overall accesses
system.cpu0.dcache.overall_mshr_miss_rate::total     0.154510                       # mshr miss rate for overall accesses
system.cpu0.dcache.demand_avg_mshr_miss_latency::.cpu0.data 17408.960674                       # average overall mshr miss latency
system.cpu0.dcache.demand_avg_mshr_miss_latency::total 17408.960674                       # average overall mshr miss latency
system.cpu0.dcache.overall_avg_mshr_miss_latency::.cpu0.data 17408.960674                       # average overall mshr miss latency
system.cpu0.dcache.overall_avg_mshr_miss_latency::total 17408.960674                       # average overall mshr miss latency
system.cpu0.dcache.replacements                637291                       # number of replacements
system.cpu0.dcache.ReadReq_hits::.cpu0.data      1963561                       # number of ReadReq hits
system.cpu0.dcache.ReadReq_hits::total        1963561                       # number of ReadReq hits
system.cpu0.dcache.ReadReq_misses::.cpu0.data       466741                       # number of ReadReq misses
system.cpu0.dcache.ReadReq_misses::total       466741                       # number of ReadReq misses
system.cpu0.dcache.ReadReq_miss_latency::.cpu0.data   6984062500                       # number of ReadReq miss cycles
system.cpu0.dcache.ReadReq_miss_latency::total   6984062500                       # number of ReadReq miss cycles
system.cpu0.dcache.ReadReq_accesses::.cpu0.data      2430302                       # number of ReadReq accesses(hits+misses)
system.cpu0.dcache.ReadReq_accesses::total      2430302                       # number of ReadReq accesses(hits+misses)
system.cpu0.dcache.ReadReq_miss_rate::.cpu0.data     0.192051                       # miss rate for ReadReq accesses
system.cpu0.dcache.ReadReq_miss_rate::total     0.192051                       # miss rate for ReadReq accesses
system.cpu0.dcache.ReadReq_avg_miss_latency::.cpu0.data 14963.464748                       # average ReadReq miss latency
system.cpu0.dcache.ReadReq_avg_miss_latency::total 14963.464748                       # average ReadReq miss latency
system.cpu0.dcache.ReadReq_mshr_hits::.cpu0.data        18088                       # number of ReadReq MSHR hits
system.cpu0.dcache.ReadReq_mshr_hits::total        18088                       # number of ReadReq MSHR hits
system.cpu0.dcache.ReadReq_mshr_misses::.cpu0.data       448653                       # number of ReadReq MSHR misses
system.cpu0.dcache.ReadReq_mshr_misses::total       448653                       # number of ReadReq MSHR misses
system.cpu0.dcache.ReadReq_mshr_miss_latency::.cpu0.data   6275460500                       # number of ReadReq MSHR miss cycles
system.cpu0.dcache.ReadReq_mshr_miss_latency::total   6275460500                       # number of ReadReq MSHR miss cycles
system.cpu0.dcache.ReadReq_mshr_miss_rate::.cpu0.data     0.184608                       # mshr miss rate for ReadReq accesses
system.cpu0.dcache.ReadReq_mshr_miss_rate::total     0.184608                       # mshr miss rate for ReadReq accesses
system.cpu0.dcache.ReadReq_avg_mshr_miss_latency::.cpu0.data 13987.336538                       # average ReadReq mshr miss latency
system.cpu0.dcache.ReadReq_avg_mshr_miss_latency::total 13987.336538                       # average ReadReq mshr miss latency
system.cpu0.dcache.WriteReq_hits::.cpu0.data      1438491                       # number of WriteReq hits
system.cpu0.dcache.WriteReq_hits::total       1438491                       # number of WriteReq hits
system.cpu0.dcache.WriteReq_misses::.cpu0.data       255894                       # number of WriteReq misses
system.cpu0.dcache.WriteReq_misses::total       255894                       # number of WriteReq misses
system.cpu0.dcache.WriteReq_miss_latency::.cpu0.data   7123371500                       # number of WriteReq miss cycles
system.cpu0.dcache.WriteReq_miss_latency::total   7123371500                       # number of WriteReq miss cycles
system.cpu0.dcache.WriteReq_accesses::.cpu0.data      1694385                       # number of WriteReq accesses(hits+misses)
system.cpu0.dcache.WriteReq_accesses::total      1694385                       # number of WriteReq accesses(hits+misses)
system.cpu0.dcache.WriteReq_miss_rate::.cpu0.data     0.151025                       # miss rate for WriteReq accesses
system.cpu0.dcache.WriteReq_miss_rate::total     0.151025                       # miss rate for WriteReq accesses
system.cpu0.dcache.WriteReq_avg_miss_latency::.cpu0.data 27837.196261                       # average WriteReq miss latency
system.cpu0.dcache.WriteReq_avg_miss_latency::total 27837.196261                       # average WriteReq miss latency
system.cpu0.dcache.WriteReq_mshr_hits::.cpu0.data        67240                       # number of WriteReq MSHR hits
system.cpu0.dcache.WriteReq_mshr_hits::total        67240                       # number of WriteReq MSHR hits
system.cpu0.dcache.WriteReq_mshr_misses::.cpu0.data       188654                       # number of WriteReq MSHR misses
system.cpu0.dcache.WriteReq_mshr_misses::total       188654                       # number of WriteReq MSHR misses
system.cpu0.dcache.WriteReq_mshr_miss_latency::.cpu0.data   4819392000                       # number of WriteReq MSHR miss cycles
system.cpu0.dcache.WriteReq_mshr_miss_latency::total   4819392000                       # number of WriteReq MSHR miss cycles
system.cpu0.dcache.WriteReq_mshr_miss_rate::.cpu0.data     0.111341                       # mshr miss rate for WriteReq accesses
system.cpu0.dcache.WriteReq_mshr_miss_rate::total     0.111341                       # mshr miss rate for WriteReq accesses
system.cpu0.dcache.WriteReq_avg_mshr_miss_latency::.cpu0.data 25546.195681                       # average WriteReq mshr miss latency
system.cpu0.dcache.WriteReq_avg_mshr_miss_latency::total 25546.195681                       # average WriteReq mshr miss latency
system.cpu0.dcache.power_state.pwrStateResidencyTicks::UNDEFINED  33402176500                       # Cumulative time (in ticks) in various power states
system.cpu0.dcache.tags.tagsinuse           15.999617                       # Cycle average of tags in use
system.cpu0.dcache.tags.total_refs            4039359                       # Total number of references to valid blocks.
system.cpu0.dcache.tags.sampled_refs           637307                       # Sample count of references to valid blocks.
system.cpu0.dcache.tags.avg_refs             6.338168                       # Average number of references to valid blocks.
system.cpu0.dcache.tags.warmup_cycle           178500                       # Cycle when the warmup percentage was hit.
system.cpu0.dcache.tags.occ_blocks::.cpu0.data    15.999617                       # Average occupied blocks per requestor
system.cpu0.dcache.tags.occ_percent::.cpu0.data     0.999976                       # Average percentage of cache occupancy
system.cpu0.dcache.tags.occ_percent::total     0.999976                       # Average percentage of cache occupancy
system.cpu0.dcache.tags.occ_task_id_blocks::1024           16                       # Occupied blocks per task id
system.cpu0.dcache.tags.age_task_id_blocks_1024::0           16                       # Occupied blocks per task id
system.cpu0.dcache.tags.occ_task_id_percent::1024            1                       # Percentage of cache occupancy per task id
system.cpu0.dcache.tags.tag_accesses         33634803                       # Number of tag accesses
system.cpu0.dcache.tags.data_accesses        33634803                       # Number of data accesses
system.cpu0.dcache.tags.power_state.pwrStateResidencyTicks::UNDEFINED  33402176500                       # Cumulative time (in ticks) in various power states
system.cpu0.power_state.pwrStateResidencyTicks::ON  33402176500                       # Cumulative time (in ticks) in various power states
system.cpu0.itb.walker.power_state.pwrStateResidencyTicks::UNDEFINED  33402176500                       # Cumulative time (in ticks) in various power states
system.cpu1.icache.demand_hits::.cpu1.inst       970008                       # number of demand (read+write) hits
system.cpu1.icache.demand_hits::total          970008                       # number of demand (read+write) hits
system.cpu1.icache.overall_hits::.cpu1.inst       970008                       # number of overall hits
system.cpu1.icache.overall_hits::total         970008                       # number of overall hits
system.cpu1.icache.demand_misses::.cpu1.inst       923081                       # number of demand (read+write) misses
system.cpu1.icache.demand_misses::total        923081                       # number of demand (read+write) misses
system.cpu1.icache.overall_misses::.cpu1.inst       923081                       # number of overall misses
system.cpu1.icache.overall_misses::total       923081                       # number of overall misses
system.cpu1.icache.demand_miss_latency::.cpu1.inst  27038653000                       # number of demand (read+write) miss cycles
system.cpu1.icache.demand_miss_latency::total  27038653000                       # number of demand (read+write) miss cycles
system.cpu1.icache.overall_miss_latency::.cpu1.inst  27038653000                       # number of overall miss cycles
system.cpu1.icache.overall_miss_latency::total  27038653000                       # number of overall miss cycles
system.cpu1.icache.demand_accesses::.cpu1.inst      1893089                       # number of demand (read+write) accesses
system.cpu1.icache.demand_accesses::total      1893089                       # number of demand (read+write) accesses
system.cpu1.icache.overall_accesses::.cpu1.inst      1893089                       # number of overall (read+write) accesses
system.cpu1.icache.overall_accesses::total      1893089                       # number of overall (read+write) accesses
system.cpu1.icache.demand_miss_rate::.cpu1.inst     0.487606                       # miss rate for demand accesses
system.cpu1.icache.demand_miss_rate::total     0.487606                       # miss rate for demand accesses
system.cpu1.icache.overall_miss_rate::.cpu1.inst     0.487606                       # miss rate for overall accesses
system.cpu1.icache.overall_miss_rate::total     0.487606                       # miss rate for overall accesses
system.cpu1.icache.demand_avg_miss_latency::.cpu1.inst 29291.744711                       # average overall miss latency
system.cpu1.icache.demand_avg_miss_latency::total 29291.744711                       # average overall miss latency
system.cpu1.icache.overall_avg_miss_latency::.cpu1.inst 29291.744711                       # average overall miss latency
system.cpu1.icache.overall_avg_miss_latency::total 29291.744711                       # average overall miss latency
system.cpu1.icache.blocked_cycles::no_mshrs            0                       # number of cycles access was blocked
system.cpu1.icache.blocked_cycles::no_targets            0                       # number of cycles access was blocked
system.cpu1.icache.blocked::no_mshrs                0                       # number of cycles access was blocked
system.cpu1.icache.blocked::no_targets              0                       # number of cycles access was blocked
system.cpu1.icache.avg_blocked_cycles::no_mshrs          nan                       # average number of cycles each access was blocked
system.cpu1.icache.avg_blocked_cycles::no_targets          nan                       # average number of cycles each access was blocked
system.cpu1.icache.writebacks::.writebacks       923064                       # number of writebacks
system.cpu1.icache.writebacks::total           923064                       # number of writebacks
system.cpu1.icache.demand_mshr_misses::.cpu1.inst       923081                       # number of demand (read+write) MSHR misses
system.cpu1.icache.demand_mshr_misses::total       923081                       # number of demand (read+write) MSHR misses
system.cpu1.icache.overall_mshr_misses::.cpu1.inst       923081                       # number of overall MSHR misses
system.cpu1.icache.overall_mshr_misses::total       923081                       # number of overall MSHR misses
system.cpu1.icache.demand_mshr_miss_latency::.cpu1.inst  26115573000                       # number of demand (read+write) MSHR miss cycles
system.cpu1.icache.demand_mshr_miss_latency::total  26115573000                       # number of demand (read+write) MSHR miss cycles
system.cpu1.icache.overall_mshr_miss_latency::.cpu1.inst  26115573000                       # number of overall MSHR miss cycles
system.cpu1.icache.overall_mshr_miss_latency::total  26115573000                       # number of overall MSHR miss cycles
system.cpu1.icache.demand_mshr_miss_rate::.cpu1.inst     0.487606                       # mshr miss rate for demand accesses
system.cpu1.icache.demand_mshr_miss_rate::total     0.487606                       # mshr miss rate for demand accesses
system.cpu1.icache.overall_mshr_miss_rate::.cpu1.inst     0.487606                       # mshr miss rate for overall accesses
system.cpu1.icache.overall_mshr_miss_rate::total     0.487606                       # mshr miss rate for overall accesses
system.cpu1.icache.demand_avg_mshr_miss_latency::.cpu1.inst 28291.745795                       # average overall mshr miss latency
system.cpu1.icache.demand_avg_mshr_miss_latency::total 28291.745795                       # average overall mshr miss latency
system.cpu1.icache.overall_avg_mshr_miss_latency::.cpu1.inst 28291.745795                       # average overall mshr miss latency
system.cpu1.icache.overall_avg_mshr_miss_latency::total 28291.745795                       # average overall mshr miss latency
system.cpu1.icache.replacements                923064                       # number of replacements
system.cpu1.icache.ReadReq_hits::.cpu1.inst       970008                       # number of ReadReq hits
system.cpu1.icache.ReadReq_hits::total         970008                       # number of ReadReq hits
system.cpu1.icache.ReadReq_misses::.cpu1.inst       923081                       # number of ReadReq misses
system.cpu1.icache.ReadReq_misses::total       923081                       # number of ReadReq misses
system.cpu1.icache.ReadReq_miss_latency::.cpu1.inst  27038653000                       # number of ReadReq miss cycles
system.cpu1.icache.ReadReq_miss_latency::total  27038653000                       # number of ReadReq miss cycles
system.cpu1.icache.ReadReq_accesses::.cpu1.inst      1893089                       # number of ReadReq accesses(hits+misses)
system.cpu1.icache.ReadReq_accesses::total      1893089                       # number of ReadReq accesses(hits+misses)
system.cpu1.icache.ReadReq_miss_rate::.cpu1.inst     0.487606                       # miss rate for ReadReq accesses
system.cpu1.icache.ReadReq_miss_rate::total     0.487606                       # miss rate for ReadReq accesses
system.cpu1.icache.ReadReq_avg_miss_latency::.cpu1.inst 29291.744711                       # average ReadReq miss latency
system.cpu1.icache.ReadReq_avg_miss_latency::total 29291.744711                       # average ReadReq miss latency
system.cpu1.icache.ReadReq_mshr_misses::.cpu1.inst       923081                       # number of ReadReq MSHR misses
system.cpu1.icache.ReadReq_mshr_misses::total       923081                       # number of ReadReq MSHR misses
system.cpu1.icache.ReadReq_mshr_miss_latency::.cpu1.inst  26115573000                       # number of ReadReq MSHR miss cycles
system.cpu1.icache.ReadReq_mshr_miss_latency::total  26115573000                       # number of ReadReq MSHR miss cycles
system.cpu1.icache.ReadReq_mshr_miss_rate::.cpu1.inst     0.487606                       # mshr miss rate for ReadReq accesses
system.cpu1.icache.ReadReq_mshr_miss_rate::total     0.487606                       # mshr miss rate for ReadReq accesses
system.cpu1.icache.ReadReq_avg_mshr_miss_latency::.cpu1.inst 28291.745795                       # average ReadReq mshr miss latency
system.cpu1.icache.ReadReq_avg_mshr_miss_latency::total 28291.745795                       # average ReadReq mshr miss latency
system.cpu1.icache.power_state.pwrStateResidencyTicks::UNDEFINED  33402176500                       # Cumulative time (in ticks) in various power states
system.cpu1.icache.tags.tagsinuse           15.999573                       # Cycle average of tags in use
system.cpu1.icache.tags.total_refs            1893088                       # Total number of references to valid blocks.
system.cpu1.icache.tags.sampled_refs           923080                       # Sample count of references to valid blocks.
system.cpu1.icache.tags.avg_refs             2.050838                       # Average number of references to valid blocks.
system.cpu1.icache.tags.warmup_cycle            94500                       # Cycle when the warmup percentage was hit.
system.cpu1.icache.tags.occ_blocks::.cpu1.inst    15.999573                       # Average occupied blocks per requestor
system.cpu1.icache.tags.occ_percent::.cpu1.inst     0.999973                       # Average percentage of cache occupancy
system.cpu1.icache.tags.occ_percent::total     0.999973                       # Average percentage of cache occupancy
system.cpu1.icache.tags.occ_task_id_blocks::1024           16                       # Occupied blocks per task id
system.cpu1.icache.tags.age_task_id_blocks_1024::0           16                       # Occupied blocks per task id
system.cpu1.icache.tags.occ_task_id_percent::1024            1                       # Percentage of cache occupancy per task id
system.cpu1.icache.tags.tag_accesses         16067792                       # Number of tag accesses
system.cpu1.icache.tags.data_accesses        16067792                       # Number of data accesses
system.cpu1.icache.tags.power_state.pwrStateResidencyTicks::UNDEFINED  33402176500                       # Cumulative time (in ticks) in various power states
system.cpu1.dtb.walker.power_state.pwrStateResidencyTicks::UNDEFINED  33402176500                       # Cumulative time (in ticks) in various power states
system.cpu1.interrupts.clk_domain.clock          8000                       # Clock period in ticks
system.cpu1.itb_walker_cache.blocked_cycles::no_mshrs            0                       # number of cycles access was blocked
system.cpu1.itb_walker_cache.blocked_cycles::no_targets            0                       # number of cycles access was blocked
system.cpu1.itb_walker_cache.blocked::no_mshrs            0                       # number of cycles access was blocked
system.cpu1.itb_walker_cache.blocked::no_targets            0                       # number of cycles access was blocked
system.cpu1.itb_walker_cache.avg_blocked_cycles::no_mshrs          nan                       # average number of cycles each access was blocked
system.cpu1.itb_walker_cache.avg_blocked_cycles::no_targets          nan                       # average number of cycles each access was blocked
system.cpu1.itb_walker_cache.replacements            0                       # number of replacements
system.cpu1.itb_walker_cache.power_state.pwrStateResidencyTicks::UNDEFINED  33402176500                       # Cumulative time (in ticks) in various power states
system.cpu1.itb_walker_cache.tags.tagsinuse            0                       # Cycle average of tags in use
system.cpu1.itb_walker_cache.tags.total_refs            0                       # Total number of references to valid blocks.
system.cpu1.itb_walker_cache.tags.sampled_refs            0                       # Sample count of references to valid blocks.
system.cpu1.itb_walker_cache.tags.avg_refs          nan                       # Average number of references to valid blocks.
system.cpu1.itb_walker_cache.tags.warmup_cycle            0                       # Cycle when the warmup percentage was hit.
system.cpu1.itb_walker_cache.tags.tag_accesses            0                       # Number of tag accesses
system.cpu1.itb_walker_cache.tags.data_accesses            0                       # Number of data accesses
system.cpu1.itb_walker_cache.tags.power_state.pwrStateResidencyTicks::UNDEFINED  33402176500                       # Cumulative time (in ticks) in various power states
system.cpu1.dtb_walker_cache.blocked_cycles::no_mshrs            0                       # number of cycles access was blocked
system.cpu1.dtb_walker_cache.blocked_cycles::no_targets            0                       # number of cycles access was blocked
system.cpu1.dtb_walker_cache.blocked::no_mshrs            0                       # number of cycles access was blocked
system.cpu1.dtb_walker_cache.blocked::no_targets            0                       # number of cycles access was blocked
system.cpu1.dtb_walker_cache.avg_blocked_cycles::no_mshrs          nan                       # average number of cycles each access was blocked
system.cpu1.dtb_walker_cache.avg_blocked_cycles::no_targets          nan                       # average number of cycles each access was blocked
system.cpu1.dtb_walker_cache.replacements            0                       # number of replacements
system.cpu1.dtb_walker_cache.power_state.pwrStateResidencyTicks::UNDEFINED  33402176500                       # Cumulative time (in ticks) in various power states
system.cpu1.dtb_walker_cache.tags.tagsinuse            0                       # Cycle average of tags in use
system.cpu1.dtb_walker_cache.tags.total_refs            0                       # Total number of references to valid blocks.
system.cpu1.dtb_walker_cache.tags.sampled_refs            0                       # Sample count of references to valid blocks.
system.cpu1.dtb_walker_cache.tags.avg_refs          nan                       # Average number of references to valid blocks.
system.cpu1.dtb_walker_cache.tags.warmup_cycle            0                       # Cycle when the warmup percentage was hit.
system.cpu1.dtb_walker_cache.tags.tag_accesses            0                       # Number of tag accesses
system.cpu1.dtb_walker_cache.tags.data_accesses            0                       # Number of data accesses
system.cpu1.dtb_walker_cache.tags.power_state.pwrStateResidencyTicks::UNDEFINED  33402176500                       # Cumulative time (in ticks) in various power states
system.cpu1.dcache.demand_hits::.cpu1.data      1950929                       # number of demand (read+write) hits
system.cpu1.dcache.demand_hits::total         1950929                       # number of demand (read+write) hits
system.cpu1.dcache.overall_hits::.cpu1.data      1950929                       # number of overall hits
system.cpu1.dcache.overall_hits::total        1950929                       # number of overall hits
system.cpu1.dcache.demand_misses::.cpu1.data       424335                       # number of demand (read+write) misses
system.cpu1.dcache.demand_misses::total        424335                       # number of demand (read+write) misses
system.cpu1.dcache.overall_misses::.cpu1.data       424335                       # number of overall misses
system.cpu1.dcache.overall_misses::total       424335                       # number of overall misses
system.cpu1.dcache.demand_miss_latency::.cpu1.data   9783265000                       # number of demand (read+write) miss cycles
system.cpu1.dcache.demand_miss_latency::total   9783265000                       # number of demand (read+write) miss cycles
system.cpu1.dcache.overall_miss_latency::.cpu1.data   9783265000                       # number of overall miss cycles
system.cpu1.dcache.overall_miss_latency::total   9783265000                       # number of overall miss cycles
system.cpu1.dcache.demand_accesses::.cpu1.data      2375264                       # number of demand (read+write) accesses
system.cpu1.dcache.demand_accesses::total      2375264                       # number of demand (read+write) accesses
system.cpu1.dcache.overall_accesses::.cpu1.data      2375264                       # number of overall (read+write) accesses
system.cpu1.dcache.overall_accesses::total      2375264                       # number of overall (read+write) accesses
system.cpu1.dcache.demand_miss_rate::.cpu1.data     0.178648                       # miss rate for demand accesses
system.cpu1.dcache.demand_miss_rate::total     0.178648                       # miss rate for demand accesses
system.cpu1.dcache.overall_miss_rate::.cpu1.data     0.178648                       # miss rate for overall accesses
system.cpu1.dcache.overall_miss_rate::total     0.178648                       # miss rate for overall accesses
system.cpu1.dcache.demand_avg_miss_latency::.cpu1.data 23055.522170                       # average overall miss latency
system.cpu1.dcache.demand_avg_miss_latency::total 23055.522170                       # average overall miss latency
system.cpu1.dcache.overall_avg_miss_latency::.cpu1.data 23055.522170                       # average overall miss latency
system.cpu1.dcache.overall_avg_miss_latency::total 23055.522170                       # average overall miss latency
system.cpu1.dcache.blocked_cycles::no_mshrs            0                       # number of cycles access was blocked
system.cpu1.dcache.blocked_cycles::no_targets            0                       # number of cycles access was blocked
system.cpu1.dcache.blocked::no_mshrs                0                       # number of cycles access was blocked
system.cpu1.dcache.blocked::no_targets              0                       # number of cycles access was blocked
system.cpu1.dcache.avg_blocked_cycles::no_mshrs          nan                       # average number of cycles each access was blocked
system.cpu1.dcache.avg_blocked_cycles::no_targets          nan                       # average number of cycles each access was blocked
system.cpu1.dcache.writebacks::.writebacks       222243                       # number of writebacks
system.cpu1.dcache.writebacks::total           222243                       # number of writebacks
system.cpu1.dcache.demand_mshr_hits::.cpu1.data        53035                       # number of demand (read+write) MSHR hits
system.cpu1.dcache.demand_mshr_hits::total        53035                       # number of demand (read+write) MSHR hits
system.cpu1.dcache.overall_mshr_hits::.cpu1.data        53035                       # number of overall MSHR hits
system.cpu1.dcache.overall_mshr_hits::total        53035                       # number of overall MSHR hits
system.cpu1.dcache.demand_mshr_misses::.cpu1.data       371300                       # number of demand (read+write) MSHR misses
system.cpu1.dcache.demand_mshr_misses::total       371300                       # number of demand (read+write) MSHR misses
system.cpu1.dcache.overall_mshr_misses::.cpu1.data       371300                       # number of overall MSHR misses
system.cpu1.dcache.overall_mshr_misses::total       371300                       # number of overall MSHR misses
system.cpu1.dcache.demand_mshr_miss_latency::.cpu1.data   7773436500                       # number of demand (read+write) MSHR miss cycles
system.cpu1.dcache.demand_mshr_miss_latency::total   7773436500                       # number of demand (read+write) MSHR miss cycles
system.cpu1.dcache.overall_mshr_miss_latency::.cpu1.data   7773436500                       # number of overall MSHR miss cycles
system.cpu1.dcache.overall_mshr_miss_latency::total   7773436500                       # number of overall MSHR miss cycles
system.cpu1.dcache.demand_mshr_miss_rate::.cpu1.data     0.156319                       # mshr miss rate for demand accesses
system.cpu1.dcache.demand_mshr_miss_rate::total     0.156319                       # mshr miss rate for demand accesses
system.cpu1.dcache.overall_mshr_miss_rate::.cpu1.data     0.156319                       # mshr miss rate for overall accesses
system.cpu1.dcache.overall_mshr_miss_rate::total     0.156319                       # mshr miss rate for overall accesses
system.cpu1.dcache.demand_avg_mshr_miss_latency::.cpu1.data 20935.729868                       # average overall mshr miss latency
system.cpu1.dcache.demand_avg_mshr_miss_latency::total 20935.729868                       # average overall mshr miss latency
system.cpu1.dcache.overall_avg_mshr_miss_latency::.cpu1.data 20935.729868                       # average overall mshr miss latency
system.cpu1.dcache.overall_avg_mshr_miss_latency::total 20935.729868                       # average overall mshr miss latency
system.cpu1.dcache.replacements                371284                       # number of replacements
system.cpu1.dcache.ReadReq_hits::.cpu1.data      1127896                       # number of ReadReq hits
system.cpu1.dcache.ReadReq_hits::total        1127896                       # number of ReadReq hits
system.cpu1.dcache.ReadReq_misses::.cpu1.data       271852                       # number of ReadReq misses
system.cpu1.dcache.ReadReq_misses::total       271852                       # number of ReadReq misses
system.cpu1.dcache.ReadReq_miss_latency::.cpu1.data   5102849000                       # number of ReadReq miss cycles
system.cpu1.dcache.ReadReq_miss_latency::total   5102849000                       # number of ReadReq miss cycles
system.cpu1.dcache.ReadReq_accesses::.cpu1.data      1399748                       # number of ReadReq accesses(hits+misses)
system.cpu1.dcache.ReadReq_accesses::total      1399748                       # number of ReadReq accesses(hits+misses)
system.cpu1.dcache.ReadReq_miss_rate::.cpu1.data     0.194215                       # miss rate for ReadReq accesses
system.cpu1.dcache.ReadReq_miss_rate::total     0.194215                       # miss rate for ReadReq accesses
system.cpu1.dcache.ReadReq_avg_miss_latency::.cpu1.data 18770.687727                       # average ReadReq miss latency
system.cpu1.dcache.ReadReq_avg_miss_latency::total 18770.687727                       # average ReadReq miss latency
system.cpu1.dcache.ReadReq_mshr_hits::.cpu1.data        10529                       # number of ReadReq MSHR hits
system.cpu1.dcache.ReadReq_mshr_hits::total        10529                       # number of ReadReq MSHR hits
system.cpu1.dcache.ReadReq_mshr_misses::.cpu1.data       261323                       # number of ReadReq MSHR misses
system.cpu1.dcache.ReadReq_mshr_misses::total       261323                       # number of ReadReq MSHR misses
system.cpu1.dcache.ReadReq_mshr_miss_latency::.cpu1.data   4603513500                       # number of ReadReq MSHR miss cycles
system.cpu1.dcache.ReadReq_mshr_miss_latency::total   4603513500                       # number of ReadReq MSHR miss cycles
system.cpu1.dcache.ReadReq_mshr_miss_rate::.cpu1.data     0.186693                       # mshr miss rate for ReadReq accesses
system.cpu1.dcache.ReadReq_mshr_miss_rate::total     0.186693                       # mshr miss rate for ReadReq accesses
system.cpu1.dcache.ReadReq_avg_mshr_miss_latency::.cpu1.data 17616.181890                       # average ReadReq mshr miss latency
system.cpu1.dcache.ReadReq_avg_mshr_miss_latency::total 17616.181890                       # average ReadReq mshr miss latency
system.cpu1.dcache.WriteReq_hits::.cpu1.data       823033                       # number of WriteReq hits
system.cpu1.dcache.WriteReq_hits::total        823033                       # number of WriteReq hits
system.cpu1.dcache.WriteReq_misses::.cpu1.data       152483                       # number of WriteReq misses
system.cpu1.dcache.WriteReq_misses::total       152483                       # number of WriteReq misses
system.cpu1.dcache.WriteReq_miss_latency::.cpu1.data   4680416000                       # number of WriteReq miss cycles
system.cpu1.dcache.WriteReq_miss_latency::total   4680416000                       # number of WriteReq miss cycles
system.cpu1.dcache.WriteReq_accesses::.cpu1.data       975516                       # number of WriteReq accesses(hits+misses)
system.cpu1.dcache.WriteReq_accesses::total       975516                       # number of WriteReq accesses(hits+misses)
system.cpu1.dcache.WriteReq_miss_rate::.cpu1.data     0.156310                       # miss rate for WriteReq accesses
[...]
system.mem_ctrls.bytesPerActivate::256-383        20342     22.13%     79.38% # Bytes accessed per row activation
system.mem_ctrls.bytesPerActivate::384-511         7953      8.65%     88.03% # Bytes accessed per row activation
system.mem_ctrls.bytesPerActivate::512-639         3006      3.27%     91.30% # Bytes accessed per row activation
system.mem_ctrls.bytesPerActivate::640-767         2075      2.26%     93.56% # Bytes accessed per row activation
system.mem_ctrls.bytesPerActivate::768-895         3319      3.61%     97.17% # Bytes accessed per row activation
system.mem_ctrls.bytesPerActivate::896-1023         2014      2.19%     99.36% # Bytes accessed per row activation
system.mem_ctrls.bytesPerActivate::1024-1151          589      0.64%    100.00% # Bytes accessed per row activation
system.mem_ctrls.bytesPerActivate::total        91936                       # Bytes accessed per row activation
system.mem_ctrls.rdPerTurnAround::samples         4185                       # Reads before turning the bus around for writes
system.mem_ctrls.rdPerTurnAround::mean      71.315173                       # Reads before turning the bus around for writes
system.mem_ctrls.rdPerTurnAround::gmean     68.612947                       # Reads before turning the bus around for writes
system.mem_ctrls.rdPerTurnAround::stdev     27.622287                       # Reads before turning the bus around for writes
system.mem_ctrls.rdPerTurnAround::0-31             23      0.55%      0.55% # Reads before turning the bus around for writes
system.mem_ctrls.rdPerTurnAround::32-63          1506     35.99%     36.54% # Reads before turning the bus around for writes
system.mem_ctrls.rdPerTurnAround::64-95          2488     59.45%     95.99% # Reads before turning the bus around for writes
system.mem_ctrls.rdPerTurnAround::96-127           98      2.34%     98.33% # Reads before turning the bus around for writes
system.mem_ctrls.rdPerTurnAround::128-159           40      0.96%     99.28% # Reads before turning the bus around for writes
system.mem_ctrls.rdPerTurnAround::160-191           12      0.29%     99.57% # Reads before turning the bus around for writes
system.mem_ctrls.rdPerTurnAround::192-223            4      0.10%     99.67% # Reads before turning the bus around for writes
system.mem_ctrls.rdPerTurnAround::224-255            4      0.10%     99.76% # Reads before turning the bus around for writes
system.mem_ctrls.rdPerTurnAround::288-319            1      0.02%     99.78% # Reads before turning the bus around for writes
system.mem_ctrls.rdPerTurnAround::320-351            3      0.07%     99.86% # Reads before turning the bus around for writes
system.mem_ctrls.rdPerTurnAround::352-383            3      0.07%     99.93% # Reads before turning the bus around for writes
system.mem_ctrls.rdPerTurnAround::512-543            1      0.02%     99.95% # Reads before turning the bus around for writes
system.mem_ctrls.rdPerTurnAround::672-703            1      0.02%     99.98% # Reads before turning the bus around for writes
system.mem_ctrls.rdPerTurnAround::864-895            1      0.02%    100.00% # Reads before turning the bus around for writes
system.mem_ctrls.rdPerTurnAround::total          4185                       # Reads before turning the bus around for writes
system.mem_ctrls.wrPerTurnAround::samples         4185                       # Writes before turning the bus around for reads
system.mem_ctrls.wrPerTurnAround::mean      16.413859                       # Writes before turning the bus around for reads
system.mem_ctrls.wrPerTurnAround::gmean     16.393249                       # Writes before turning the bus around for reads
system.mem_ctrls.wrPerTurnAround::stdev      0.845808                       # Writes before turning the bus around for reads
system.mem_ctrls.wrPerTurnAround::16             3337     79.74%     79.74% # Writes before turning the bus around for reads
system.mem_ctrls.wrPerTurnAround::17               62      1.48%     81.22% # Writes before turning the bus around for reads
system.mem_ctrls.wrPerTurnAround::18              695     16.61%     97.83% # Writes before turning the bus around for reads
system.mem_ctrls.wrPerTurnAround::19               84      2.01%     99.83% # Writes before turning the bus around for reads
system.mem_ctrls.wrPerTurnAround::20                7      0.17%    100.00% # Writes before turning the bus around for reads
system.mem_ctrls.wrPerTurnAround::total          4185                       # Writes before turning the bus around for reads
system.mem_ctrls.bytesReadDRAM               19101632                       # Total number of bytes read from DRAM
system.mem_ctrls.bytesReadWrQ                 1075648                       # Total number of bytes read from write queue
system.mem_ctrls.bytesWritten                 4396288                       # Total number of bytes written to DRAM
system.mem_ctrls.bytesReadSys                20177280                       # Total read bytes from the system interface side
system.mem_ctrls.bytesWrittenSys              5147840                       # Total written bytes from the system interface side
system.mem_ctrls.avgRdBW                       571.87                       # Average DRAM read bandwidth in MiByte/s
system.mem_ctrls.avgWrBW                       131.62                       # Average achieved write bandwidth in MiByte/s
system.mem_ctrls.avgRdBWSys                    604.07                       # Average system read bandwidth in MiByte/s
system.mem_ctrls.avgWrBWSys                    154.12                       # Average system write bandwidth in MiByte/s
system.mem_ctrls.peakBW                      12800.00                       # Theoretical peak bandwidth in MiByte/s
system.mem_ctrls.busUtil                         5.50                       # Data bus utilization in percentage
system.mem_ctrls.busUtilRead                     4.47                       # Data bus utilization in percentage for reads
system.mem_ctrls.busUtilWrite                    1.03                       # Data bus utilization in percentage for writes
system.mem_ctrls.totGap                   33402108000                       # Total gap between requests
system.mem_ctrls.avgGap                      84411.64                       # Average gap between requests
system.mem_ctrls.masterReadBytes::.cpu0.inst       177472                       # Per-master bytes read from memory
system.mem_ctrls.masterReadBytes::.cpu0.data      2665216                       # Per-master bytes read from memory
system.mem_ctrls.masterReadBytes::.cpu1.inst     14027648                       # Per-master bytes read from memory
system.mem_ctrls.masterReadBytes::.cpu1.data      2231296                       # Per-master bytes read from memory
system.mem_ctrls.masterWriteBytes::.writebacks      4396288                       # Per-master bytes write to memory
system.mem_ctrls.masterReadRate::.cpu0.inst 5313186.702070148662                       # Per-master bytes read from memory rate (Bytes/sec)
system.mem_ctrls.masterReadRate::.cpu0.data 79791686.628564462066                       # Per-master bytes read from memory rate (Bytes/sec)
system.mem_ctrls.masterReadRate::.cpu1.inst 419962094.386274516582                       # Per-master bytes read from memory rate (Bytes/sec)
system.mem_ctrls.masterReadRate::.cpu1.data 66800916.401360854506                       # Per-master bytes read from memory rate (Bytes/sec)
system.mem_ctrls.masterWriteRate::.writebacks 131616812.455320090055                       # Per-master bytes write to memory rate (Bytes/sec)
system.mem_ctrls.masterReadAccesses::.cpu0.inst         2773                       # Per-master read serviced memory accesses
system.mem_ctrls.masterReadAccesses::.cpu0.data        41777                       # Per-master read serviced memory accesses
system.mem_ctrls.masterReadAccesses::.cpu1.inst       219182                       # Per-master read serviced memory accesses
system.mem_ctrls.masterReadAccesses::.cpu1.data        51538                       # Per-master read serviced memory accesses
system.mem_ctrls.masterWriteAccesses::.writebacks        80435                       # Per-master write serviced memory accesses
system.mem_ctrls.masterReadTotalLat::.cpu0.inst     99434750                       # Per-master read total memory access latency
system.mem_ctrls.masterReadTotalLat::.cpu0.data   1419820000                       # Per-master read total memory access latency
system.mem_ctrls.masterReadTotalLat::.cpu1.inst   5944990500                       # Per-master read total memory access latency
system.mem_ctrls.masterReadTotalLat::.cpu1.data   1197629250                       # Per-master read total memory access latency
system.mem_ctrls.masterWriteTotalLat::.writebacks 813294940250                       # Per-master write total memory access latency
system.mem_ctrls.masterReadAvgLat::.cpu0.inst     35858.19                       # Per-master read average memory access latency
system.mem_ctrls.masterReadAvgLat::.cpu0.data     33985.69                       # Per-master read average memory access latency
system.mem_ctrls.masterReadAvgLat::.cpu1.inst     27123.53                       # Per-master read average memory access latency
system.mem_ctrls.masterReadAvgLat::.cpu1.data     23237.79                       # Per-master read average memory access latency
system.mem_ctrls.masterWriteAvgLat::.writebacks  10111207.06                       # Per-master write average memory access latency
system.mem_ctrls.pageHitRate                    74.95                       # Row buffer hit rate, read and write combined
system.mem_ctrls.rank1.actEnergy            244530720                       # Energy for activate commands per rank (pJ)
system.mem_ctrls.rank1.preEnergy            129952185                       # Energy for precharge commands per rank (pJ)
system.mem_ctrls.rank1.readEnergy           626692080                       # Energy for read commands per rank (pJ)
system.mem_ctrls.rank1.writeEnergy          160843860                       # Energy for write commands per rank (pJ)
system.mem_ctrls.rank1.refreshEnergy     2636190960.000000                       # Energy for refresh commands per rank (pJ)
system.mem_ctrls.rank1.actBackEnergy      12614677410                       # Energy for active background per rank (pJ)
system.mem_ctrls.rank1.preBackEnergy       2203549920                       # Energy for precharge background per rank (pJ)
system.mem_ctrls.rank1.actPowerDownEnergy            0                       # Energy for active power-down per rank (pJ)
system.mem_ctrls.rank1.prePowerDownEnergy            0                       # Energy for precharge power-down per rank (pJ)
system.mem_ctrls.rank1.selfRefreshEnergy            0                       # Energy for self refresh per rank (pJ)
system.mem_ctrls.rank1.totalEnergy        18616437135                       # Total energy per rank (pJ)
system.mem_ctrls.rank1.averagePower        557.342038                       # Core power per rank (mW)
system.mem_ctrls.rank1.totalIdleTime                0                       # Total Idle time Per DRAM Rank
system.mem_ctrls.rank1.memoryStateTime::IDLE   5613901500                       # Time in different power states
system.mem_ctrls.rank1.memoryStateTime::REF   1115140000                       # Time in different power states
system.mem_ctrls.rank1.memoryStateTime::SREF            0                       # Time in different power states
system.mem_ctrls.rank1.memoryStateTime::PRE_PDN            0                       # Time in different power states
system.mem_ctrls.rank1.memoryStateTime::ACT  26673135000                       # Time in different power states
system.mem_ctrls.rank1.memoryStateTime::ACT_PDN            0                       # Time in different power states
system.mem_ctrls.rank0.actEnergy            411970860                       # Energy for activate commands per rank (pJ)
system.mem_ctrls.rank0.preEnergy            218944935                       # Energy for precharge commands per rank (pJ)
system.mem_ctrls.rank0.readEnergy          1504333740                       # Energy for read commands per rank (pJ)
system.mem_ctrls.rank0.writeEnergy          197728380                       # Energy for write commands per rank (pJ)
system.mem_ctrls.rank0.refreshEnergy     2636190960.000000                       # Energy for refresh commands per rank (pJ)
system.mem_ctrls.rank0.actBackEnergy      15020003880                       # Energy for active background per rank (pJ)
system.mem_ctrls.rank0.preBackEnergy        178011840                       # Energy for precharge background per rank (pJ)
system.mem_ctrls.rank0.actPowerDownEnergy            0                       # Energy for active power-down per rank (pJ)
system.mem_ctrls.rank0.prePowerDownEnergy            0                       # Energy for precharge power-down per rank (pJ)
system.mem_ctrls.rank0.selfRefreshEnergy            0                       # Energy for self refresh per rank (pJ)
system.mem_ctrls.rank0.totalEnergy        20167184595                       # Total energy per rank (pJ)
system.mem_ctrls.rank0.averagePower        603.768578                       # Core power per rank (mW)
system.mem_ctrls.rank0.totalIdleTime                0                       # Total Idle time Per DRAM Rank
system.mem_ctrls.rank0.memoryStateTime::IDLE    333290000                       # Time in different power states
system.mem_ctrls.rank0.memoryStateTime::REF   1115140000                       # Time in different power states
system.mem_ctrls.rank0.memoryStateTime::SREF            0                       # Time in different power states
system.mem_ctrls.rank0.memoryStateTime::PRE_PDN            0                       # Time in different power states
system.mem_ctrls.rank0.memoryStateTime::ACT  31953746500                       # Time in different power states
system.mem_ctrls.rank0.memoryStateTime::ACT_PDN            0                       # Time in different power states
system.mem_ctrls.power_state.pwrStateResidencyTicks::UNDEFINED  33402176500                       # Cumulative time (in ticks) in various power states
system.cpu_clk_domain.clock                       500                       # Clock period in ticks
system.tol2bus.trans_dist::ReadResp           3268623                       # Transaction distribution
system.tol2bus.trans_dist::WritebackDirty       736334                       # Transaction distribution
system.tol2bus.trans_dist::WritebackClean      2558615                       # Transaction distribution
system.tol2bus.trans_dist::CleanEvict          587425                       # Transaction distribution
system.tol2bus.trans_dist::ReadExReq           298631                       # Transaction distribution
system.tol2bus.trans_dist::ReadExResp          298631                       # Transaction distribution
system.tol2bus.trans_dist::ReadCleanReq       2558648                       # Transaction distribution
system.tol2bus.trans_dist::ReadSharedReq       709976                       # Transaction distribution
system.tol2bus.pkt_count_system.cpu0.icache.mem_side::system.l2.cpu_side      4906685                       # Packet count per connected master and slave (bytes)
system.tol2bus.pkt_count_system.cpu0.dcache.mem_side::system.l2.cpu_side      1911905                       # Packet count per connected master and slave (bytes)
system.tol2bus.pkt_count_system.cpu1.icache.mem_side::system.l2.cpu_side      2769225                       # Packet count per connected master and slave (bytes)
system.tol2bus.pkt_count_system.cpu1.dcache.mem_side::system.l2.cpu_side      1113884                       # Packet count per connected master and slave (bytes)
system.tol2bus.pkt_count::total              10701699                       # Packet count per connected master and slave (bytes)
system.tol2bus.pkt_size_system.cpu0.icache.mem_side::system.l2.cpu_side    209351552                       # Cumulative packet size per connected master and slave (bytes)
system.tol2bus.pkt_size_system.cpu0.dcache.mem_side::system.l2.cpu_side     68541632                       # Cumulative packet size per connected master and slave (bytes)
system.tol2bus.pkt_size_system.cpu1.icache.mem_side::system.l2.cpu_side    118153216                       # Cumulative packet size per connected master and slave (bytes)
system.tol2bus.pkt_size_system.cpu1.dcache.mem_side::system.l2.cpu_side     37986752                       # Cumulative packet size per connected master and slave (bytes)
system.tol2bus.pkt_size::total              434033152                       # Cumulative packet size per connected master and slave (bytes)
system.tol2bus.snoops                          315184                       # Total snoops (count)
system.tol2bus.snoopTraffic                   5147840                       # Total snoop traffic (bytes)
system.tol2bus.snoop_fanout::samples          3882439                       # Request fanout histogram
system.tol2bus.snoop_fanout::mean            0.000283                       # Request fanout histogram
system.tol2bus.snoop_fanout::stdev           0.016815                       # Request fanout histogram
system.tol2bus.snoop_fanout::underflows             0      0.00%      0.00% # Request fanout histogram
system.tol2bus.snoop_fanout::0                3881341     99.97%     99.97% # Request fanout histogram
system.tol2bus.snoop_fanout::1                   1098      0.03%    100.00% # Request fanout histogram
system.tol2bus.snoop_fanout::2                      0      0.00%    100.00% # Request fanout histogram
system.tol2bus.snoop_fanout::3                      0      0.00%    100.00% # Request fanout histogram
system.tol2bus.snoop_fanout::4                      0      0.00%    100.00% # Request fanout histogram
system.tol2bus.snoop_fanout::5                      0      0.00%    100.00% # Request fanout histogram
system.tol2bus.snoop_fanout::6                      0      0.00%    100.00% # Request fanout histogram
system.tol2bus.snoop_fanout::7                      0      0.00%    100.00% # Request fanout histogram
system.tol2bus.snoop_fanout::8                      0      0.00%    100.00% # Request fanout histogram
system.tol2bus.snoop_fanout::overflows              0      0.00%    100.00% # Request fanout histogram
system.tol2bus.snoop_fanout::min_value              0                       # Request fanout histogram
system.tol2bus.snoop_fanout::max_value              1                       # Request fanout histogram
system.tol2bus.snoop_fanout::total            3882439                       # Request fanout histogram
system.tol2bus.reqLayer0.occupancy         6781736500                       # Layer occupancy (ticks)
system.tol2bus.reqLayer0.utilization             20.3                       # Layer utilization (%)
system.tol2bus.respLayer5.occupancy         558153581                       # Layer occupancy (ticks)
system.tol2bus.respLayer5.utilization             1.7                       # Layer utilization (%)
system.tol2bus.respLayer4.occupancy        1388795130                       # Layer occupancy (ticks)
system.tol2bus.respLayer4.utilization             4.2                       # Layer utilization (%)
system.tol2bus.respLayer1.occupancy         956471470                       # Layer occupancy (ticks)
system.tol2bus.respLayer1.utilization             2.9                       # Layer utilization (%)
system.tol2bus.respLayer0.occupancy        2453842514                       # Layer occupancy (ticks)
system.tol2bus.respLayer0.utilization             7.3                       # Layer utilization (%)
system.tol2bus.power_state.pwrStateResidencyTicks::UNDEFINED  33402176500                       # Cumulative time (in ticks) in various power states

---------- End Simulation Statistics   ----------
