
---------- Begin Simulation Statistics ----------
final_tick                                34389788000                       # Number of ticks from beginning of simulation (restored from checkpoints and never reset)
host_inst_rate                                 191573                       # Simulator instruction rate (inst/s)
host_mem_usage                                4491036                       # Number of bytes of host memory used
host_op_rate                                   356105                       # Simulator op (including micro ops) rate (op/s)
host_seconds                                    83.14                       # Real time elapsed on the host
host_tick_rate                              413625076                       # Simulator tick rate (ticks/s)
sim_freq                                 1000000000000                       # Frequency of simulated ticks
sim_insts                                    15927792                       # Number of instructions simulated
sim_ops                                      29607441                       # Number of ops (including micro ops) simulated
sim_seconds                                  0.034390                       # Number of seconds simulated
sim_ticks                                 34389788000                       # Number of ticks simulated
system.cpu0.branchPred.BTBCorrect                   0                       # Number of correct BTB predictions (this stat may not work properly.
system.cpu0.branchPred.BTBHitPct                  nan                       # BTB Hit Percentage
system.cpu0.branchPred.BTBHits                      0                       # Number of BTB hits
system.cpu0.branchPred.BTBLookups                   0                       # Number of BTB lookups
system.cpu0.branchPred.RASInCorrect                 0                       # Number of incorrect RAS predictions.
system.cpu0.branchPred.condIncorrect               92                       # Number of conditional branches incorrect
system.cpu0.branchPred.condPredicted              287                       # Number of conditional branches predicted
system.cpu0.branchPred.indirectHits                 0                       # Number of indirect target hits.
system.cpu0.branchPred.indirectLookups             57                       # Number of indirect predictor lookups.
system.cpu0.branchPred.indirectMisses              57                       # Number of indirect misses.
system.cpu0.branchPred.lookups                    287                       # Number of BP lookups
system.cpu0.branchPred.usedRAS                      0                       # Number of times the RAS was used to get a target.
system.cpu0.branchPredindirectMispredicted           39                       # Number of mispredicted indirect branches.
system.cpu0.committedInsts                   10000000                       # Number of instructions committed
system.cpu0.committedOps                     20977542                       # Number of ops (including micro ops) committed
system.cpu0.cpi                              6.877958                       # CPI: cycles per instruction
system.cpu0.discardedOps                      5692808                       # Number of ops (including micro ops) which were discarded before commit
system.cpu0.dtb.rdAccesses                    2460975                       # TLB accesses on read requests
system.cpu0.dtb.rdMisses                        35063                       # TLB misses on read requests
system.cpu0.dtb.wrAccesses                    1493535                       # TLB accesses on write requests
system.cpu0.dtb.wrMisses                          533                       # TLB misses on write requests
system.cpu0.fetch2.amo_instructions                 0                       # Number of memory atomic instructions successfully decoded
system.cpu0.fetch2.fp_instructions                  0                       # Number of floating point instructions successfully decoded
system.cpu0.fetch2.int_instructions                29                       # Number of integer instructions successfully decoded
system.cpu0.fetch2.load_instructions                0                       # Number of memory load instructions successfully decoded
system.cpu0.fetch2.store_instructions               0                       # Number of memory store instructions successfully decoded
system.cpu0.fetch2.vec_instructions                 0                       # Number of SIMD instructions successfully decoded
system.cpu0.idleCycles                       28268941                       # Total number of cycles that the object has spent stopped
system.cpu0.ipc                              0.145392                       # IPC: instructions per cycle
system.cpu0.itb.rdAccesses                          0                       # TLB accesses on read requests
system.cpu0.itb.rdMisses                            0                       # TLB misses on read requests
system.cpu0.itb.wrAccesses                    5357877                       # TLB accesses on write requests
system.cpu0.itb.wrMisses                          612                       # TLB misses on write requests
system.cpu0.numCycles                        68779576                       # number of cpu cycles simulated
system.cpu0.numFetchSuspends                        0                       # Number of times Execute suspended instruction fetching
system.cpu0.numWorkItemsCompleted                   0                       # number of work items this cpu completed
system.cpu0.numWorkItemsStarted                     0                       # number of work items this cpu started
system.cpu0.op_class_0::No_OpClass             692868      3.30%      3.30% # Class of committed instruction
system.cpu0.op_class_0::IntAlu               16308207     77.74%     81.04% # Class of committed instruction
system.cpu0.op_class_0::IntMult                  2368      0.01%     81.06% # Class of committed instruction
system.cpu0.op_class_0::IntDiv                 162889      0.78%     81.83% # Class of committed instruction
system.cpu0.op_class_0::FloatAdd                25090      0.12%     81.95% # Class of committed instruction
system.cpu0.op_class_0::FloatCmp                    0      0.00%     81.95% # Class of committed instruction
system.cpu0.op_class_0::FloatCvt                 2096      0.01%     81.96% # Class of committed instruction
system.cpu0.op_class_0::FloatMult                   0      0.00%     81.96% # Class of committed instruction
system.cpu0.op_class_0::FloatMultAcc                0      0.00%     81.96% # Class of committed instruction
system.cpu0.op_class_0::FloatDiv                    0      0.00%     81.96% # Class of committed instruction
system.cpu0.op_class_0::FloatMisc                   0      0.00%     81.96% # Class of committed instruction
system.cpu0.op_class_0::FloatSqrt                   0      0.00%     81.96% # Class of committed instruction
system.cpu0.op_class_0::SimdAdd                 24906      0.12%     82.08% # Class of committed instruction
system.cpu0.op_class_0::SimdAddAcc                  0      0.00%     82.08% # Class of committed instruction
system.cpu0.op_class_0::SimdAlu                 86613      0.41%     82.49% # Class of committed instruction
system.cpu0.op_class_0::SimdCmp                  6936      0.03%     82.53% # Class of committed instruction
system.cpu0.op_class_0::SimdCvt                 95642      0.46%     82.98% # Class of committed instruction
system.cpu0.op_class_0::SimdMisc                89955      0.43%     83.41% # Class of committed instruction
system.cpu0.op_class_0::SimdMult                    0      0.00%     83.41% # Class of committed instruction
system.cpu0.op_class_0::SimdMultAcc                 0      0.00%     83.41% # Class of committed instruction
system.cpu0.op_class_0::SimdShift                6163      0.03%     83.44% # Class of committed instruction
system.cpu0.op_class_0::SimdShiftAcc                0      0.00%     83.44% # Class of committed instruction
system.cpu0.op_class_0::SimdDiv                     0      0.00%     83.44% # Class of committed instruction
system.cpu0.op_class_0::SimdSqrt                    0      0.00%     83.44% # Class of committed instruction
system.cpu0.op_class_0::SimdFloatAdd             1714      0.01%     83.45% # Class of committed instruction
system.cpu0.op_class_0::SimdFloatAlu                0      0.00%     83.45% # Class of committed instruction
system.cpu0.op_class_0::SimdFloatCmp                0      0.00%     83.45% # Class of committed instruction
system.cpu0.op_class_0::SimdFloatCvt             8287      0.04%     83.49% # Class of committed instruction
system.cpu0.op_class_0::SimdFloatDiv                0      0.00%     83.49% # Class of committed instruction
system.cpu0.op_class_0::SimdFloatMisc               0      0.00%     83.49% # Class of committed instruction
system.cpu0.op_class_0::SimdFloatMult              82      0.00%     83.49% # Class of committed instruction
system.cpu0.op_class_0::SimdFloatMultAcc            0      0.00%     83.49% # Class of committed instruction
system.cpu0.op_class_0::SimdFloatSqrt               0      0.00%     83.49% # Class of committed instruction
system.cpu0.op_class_0::SimdReduceAdd               0      0.00%     83.49% # Class of committed instruction
system.cpu0.op_class_0::SimdReduceAlu               0      0.00%     83.49% # Class of committed instruction
system.cpu0.op_class_0::SimdReduceCmp               0      0.00%     83.49% # Class of committed instruction
system.cpu0.op_class_0::SimdFloatReduceAdd            0      0.00%     83.49% # Class of committed instruction
system.cpu0.op_class_0::SimdFloatReduceCmp            0      0.00%     83.49% # Class of committed instruction
system.cpu0.op_class_0::SimdAes                     0      0.00%     83.49% # Class of committed instruction
system.cpu0.op_class_0::SimdAesMix                  0      0.00%     83.49% # Class of committed instruction
system.cpu0.op_class_0::SimdSha1Hash                0      0.00%     83.49% # Class of committed instruction
system.cpu0.op_class_0::SimdSha1Hash2               0      0.00%     83.49% # Class of committed instruction
system.cpu0.op_class_0::SimdSha256Hash              0      0.00%     83.49% # Class of committed instruction
system.cpu0.op_class_0::SimdSha256Hash2             0      0.00%     83.49% # Class of committed instruction
system.cpu0.op_class_0::SimdShaSigma2               0      0.00%     83.49% # Class of committed instruction
system.cpu0.op_class_0::SimdShaSigma3               0      0.00%     83.49% # Class of committed instruction
system.cpu0.op_class_0::SimdPredAlu                 0      0.00%     83.49% # Class of committed instruction
system.cpu0.op_class_0::MemRead               1890985      9.01%     92.50% # Class of committed instruction
system.cpu0.op_class_0::MemWrite              1365189      6.51%     99.01% # Class of committed instruction
system.cpu0.op_class_0::FloatMemRead           156640      0.75%     99.76% # Class of committed instruction
system.cpu0.op_class_0::FloatMemWrite           50912      0.24%    100.00% # Class of committed instruction
system.cpu0.op_class_0::IprAccess                   0      0.00%    100.00% # Class of committed instruction
system.cpu0.op_class_0::InstPrefetch                0      0.00%    100.00% # Class of committed instruction
system.cpu0.op_class_0::total                20977542                       # Class of committed instruction
system.cpu0.tickCycles                       40510635                       # Number of cycles that the object actually ticked
system.cpu0.workload.numSyscalls                   92                       # Number of system calls
system.cpu1.branchPred.BTBCorrect                   0                       # Number of correct BTB predictions (this stat may not work properly.
system.cpu1.branchPred.BTBHitPct                  nan                       # BTB Hit Percentage
system.cpu1.branchPred.BTBHits                      0                       # Number of BTB hits
system.cpu1.branchPred.BTBLookups                   0                       # Number of BTB lookups
system.cpu1.branchPred.RASInCorrect                 0                       # Number of incorrect RAS predictions.
system.cpu1.branchPred.condIncorrect               40                       # Number of conditional branches incorrect
system.cpu1.branchPred.condPredicted               83                       # Number of conditional branches predicted
system.cpu1.branchPred.indirectHits                 0                       # Number of indirect target hits.
system.cpu1.branchPred.indirectLookups             25                       # Number of indirect predictor lookups.
system.cpu1.branchPred.indirectMisses              25                       # Number of indirect misses.
system.cpu1.branchPred.lookups                     83                       # Number of BP lookups
system.cpu1.branchPred.usedRAS                      0                       # Number of times the RAS was used to get a target.
system.cpu1.branchPredindirectMispredicted           13                       # Number of mispredicted indirect branches.
system.cpu1.committedInsts                    5927792                       # Number of instructions committed
system.cpu1.committedOps                      8629899                       # Number of ops (including micro ops) committed
system.cpu1.cpi                             11.602899                       # CPI: cycles per instruction
system.cpu1.discardedOps                      1155632                       # Number of ops (including micro ops) which were discarded before commit
system.cpu1.dtb.rdAccesses                    1117975                       # TLB accesses on read requests
system.cpu1.dtb.rdMisses                       214938                       # TLB misses on read requests
system.cpu1.dtb.wrAccesses                    4277839                       # TLB accesses on write requests
system.cpu1.dtb.wrMisses                        16687                       # TLB misses on write requests
system.cpu1.fetch2.amo_instructions                 0                       # Number of memory atomic instructions successfully decoded
system.cpu1.fetch2.fp_instructions                  0                       # Number of floating point instructions successfully decoded
system.cpu1.fetch2.int_instructions                 8                       # Number of integer instructions successfully decoded
system.cpu1.fetch2.load_instructions                0                       # Number of memory load instructions successfully decoded
system.cpu1.fetch2.store_instructions               0                       # Number of memory store instructions successfully decoded
system.cpu1.fetch2.vec_instructions                 0                       # Number of SIMD instructions successfully decoded
system.cpu1.idleCycles                       56874036                       # Total number of cycles that the object has spent stopped
system.cpu1.ipc                              0.086185                       # IPC: instructions per cycle
system.cpu1.itb.rdAccesses                          0                       # TLB accesses on read requests
system.cpu1.itb.rdMisses                            0                       # TLB misses on read requests
system.cpu1.itb.wrAccesses                    1380249                       # TLB accesses on write requests
system.cpu1.itb.wrMisses                          271                       # TLB misses on write requests
system.cpu1.numCycles                        68779573                       # number of cpu cycles simulated
system.cpu1.numFetchSuspends                        0                       # Number of times Execute suspended instruction fetching
system.cpu1.numWorkItemsCompleted                   0                       # number of work items this cpu completed
system.cpu1.numWorkItemsStarted                     0                       # number of work items this cpu started
system.cpu1.op_class_0::No_OpClass               1997      0.02%      0.02% # Class of committed instruction
system.cpu1.op_class_0::IntAlu                3021498     35.01%     35.04% # Class of committed instruction
system.cpu1.op_class_0::IntMult                    36      0.00%     35.04% # Class of committed instruction
system.cpu1.op_class_0::IntDiv                   1447      0.02%     35.05% # Class of committed instruction
system.cpu1.op_class_0::FloatAdd               638577      7.40%     42.45% # Class of committed instruction
system.cpu1.op_class_0::FloatCmp                    0      0.00%     42.45% # Class of committed instruction
system.cpu1.op_class_0::FloatCvt                  112      0.00%     42.45% # Class of committed instruction
system.cpu1.op_class_0::FloatMult                   0      0.00%     42.45% # Class of committed instruction
system.cpu1.op_class_0::FloatMultAcc                0      0.00%     42.45% # Class of committed instruction
system.cpu1.op_class_0::FloatDiv                    0      0.00%     42.45% # Class of committed instruction
system.cpu1.op_class_0::FloatMisc                   0      0.00%     42.45% # Class of committed instruction
system.cpu1.op_class_0::FloatSqrt                   0      0.00%     42.45% # Class of committed instruction
system.cpu1.op_class_0::SimdAdd                  1140      0.01%     42.47% # Class of committed instruction
system.cpu1.op_class_0::SimdAddAcc                  0      0.00%     42.47% # Class of committed instruction
system.cpu1.op_class_0::SimdAlu                  1367      0.02%     42.48% # Class of committed instruction
system.cpu1.op_class_0::SimdCmp                    12      0.00%     42.48% # Class of committed instruction
system.cpu1.op_class_0::SimdCvt                  1866      0.02%     42.50% # Class of committed instruction
system.cpu1.op_class_0::SimdMisc                 1287      0.01%     42.52% # Class of committed instruction
system.cpu1.op_class_0::SimdMult                    0      0.00%     42.52% # Class of committed instruction
system.cpu1.op_class_0::SimdMultAcc                 0      0.00%     42.52% # Class of committed instruction
system.cpu1.op_class_0::SimdShift                 426      0.00%     42.52% # Class of committed instruction
system.cpu1.op_class_0::SimdShiftAcc                0      0.00%     42.52% # Class of committed instruction
system.cpu1.op_class_0::SimdDiv                     0      0.00%     42.52% # Class of committed instruction
system.cpu1.op_class_0::SimdSqrt                    0      0.00%     42.52% # Class of committed instruction
system.cpu1.op_class_0::SimdFloatAdd                0      0.00%     42.52% # Class of committed instruction
system.cpu1.op_class_0::SimdFloatAlu                0      0.00%     42.52% # Class of committed instruction
system.cpu1.op_class_0::SimdFloatCmp                0      0.00%     42.52% # Class of committed instruction
system.cpu1.op_class_0::SimdFloatCvt                2      0.00%     42.52% # Class of committed instruction
system.cpu1.op_class_0::SimdFloatDiv                0      0.00%     42.52% # Class of committed instruction
system.cpu1.op_class_0::SimdFloatMisc               0      0.00%     42.52% # Class of committed instruction
system.cpu1.op_class_0::SimdFloatMult               0      0.00%     42.52% # Class of committed instruction
system.cpu1.op_class_0::SimdFloatMultAcc            0      0.00%     42.52% # Class of committed instruction
system.cpu1.op_class_0::SimdFloatSqrt               0      0.00%     42.52% # Class of committed instruction
system.cpu1.op_class_0::SimdReduceAdd               0      0.00%     42.52% # Class of committed instruction
system.cpu1.op_class_0::SimdReduceAlu               0      0.00%     42.52% # Class of committed instruction
system.cpu1.op_class_0::SimdReduceCmp               0      0.00%     42.52% # Class of committed instruction
system.cpu1.op_class_0::SimdFloatReduceAdd            0      0.00%     42.52% # Class of committed instruction
system.cpu1.op_class_0::SimdFloatReduceCmp            0      0.00%     42.52% # Class of committed instruction
system.cpu1.op_class_0::SimdAes                     0      0.00%     42.52% # Class of committed instruction
system.cpu1.op_class_0::SimdAesMix                  0      0.00%     42.52% # Class of committed instruction
system.cpu1.op_class_0::SimdSha1Hash                0      0.00%     42.52% # Class of committed instruction
system.cpu1.op_class_0::SimdSha1Hash2               0      0.00%     42.52% # Class of committed instruction
system.cpu1.op_class_0::SimdSha256Hash              0      0.00%     42.52% # Class of committed instruction
system.cpu1.op_class_0::SimdSha256Hash2             0      0.00%     42.52% # Class of committed instruction
system.cpu1.op_class_0::SimdShaSigma2               0      0.00%     42.52% # Class of committed instruction
system.cpu1.op_class_0::SimdShaSigma3               0      0.00%     42.52% # Class of committed instruction
system.cpu1.op_class_0::SimdPredAlu                 0      0.00%     42.52% # Class of committed instruction
system.cpu1.op_class_0::MemRead                 42409      0.49%     43.02% # Class of committed instruction
system.cpu1.op_class_0::MemWrite               232800      2.70%     45.71% # Class of committed instruction
system.cpu1.op_class_0::FloatMemRead           640659      7.42%     53.14% # Class of committed instruction
system.cpu1.op_class_0::FloatMemWrite         4044264     46.86%    100.00% # Class of committed instruction
system.cpu1.op_class_0::IprAccess                   0      0.00%    100.00% # Class of committed instruction
system.cpu1.op_class_0::InstPrefetch                0      0.00%    100.00% # Class of committed instruction
system.cpu1.op_class_0::total                 8629899                       # Class of committed instruction
system.cpu1.tickCycles                       11905537                       # Number of cycles that the object actually ticked
system.cpu1.workload.numSyscalls                   40                       # Number of system calls
system.membus.snoop_filter.hit_multi_requests            0                       # Number of requests hitting in the snoop filter with multiple (>1) holders of the requested data.
system.membus.snoop_filter.hit_multi_snoops            0                       # Number of snoops hitting in the snoop filter with multiple (>1) holders of the requested data.
system.membus.snoop_filter.hit_single_requests       591247                       # Number of requests hitting in the snoop filter with a single holder of the requested data.
system.membus.snoop_filter.hit_single_snoops            0                       # Number of snoops hitting in the snoop filter with a single holder of the requested data.
system.membus.snoop_filter.tot_requests       1183537                       # Total number of requests made to the snoop filter.
system.membus.snoop_filter.tot_snoops               0                       # Total number of snoops made to the snoop filter.
system.tol2bus.snoop_filter.hit_multi_requests            0                       # Number of requests hitting in the snoop filter with multiple (>1) holders of the requested data.
system.tol2bus.snoop_filter.hit_multi_snoops            0                       # Number of snoops hitting in the snoop filter with multiple (>1) holders of the requested data.
system.tol2bus.snoop_filter.hit_single_requests      2083230                       # Number of requests hitting in the snoop filter with a single holder of the requested data.
system.tol2bus.snoop_filter.hit_single_snoops          341                       # Number of snoops hitting in the snoop filter with a single holder of the requested data.
system.tol2bus.snoop_filter.tot_requests      4166526                       # Total number of requests made to the snoop filter.
system.tol2bus.snoop_filter.tot_snoops            341                       # Total number of snoops made to the snoop filter.
system.membus.trans_dist::ReadResp              42811                       # Transaction distribution
system.membus.trans_dist::WritebackDirty       552402                       # Transaction distribution
system.membus.trans_dist::CleanEvict            38845                       # Transaction distribution
system.membus.trans_dist::ReadExReq            549479                       # Transaction distribution
system.membus.trans_dist::ReadExResp           549479                       # Transaction distribution
system.membus.trans_dist::ReadSharedReq         42811                       # Transaction distribution
system.membus.pkt_count_system.l2.mem_side::system.mem_ctrls.port      1775827                       # Packet count per connected master and slave (bytes)
system.membus.pkt_count_system.l2.mem_side::total      1775827                       # Packet count per connected master and slave (bytes)
system.membus.pkt_count::total                1775827                       # Packet count per connected master and slave (bytes)
system.membus.pkt_size_system.l2.mem_side::system.mem_ctrls.port     73260288                       # Cumulative packet size per connected master and slave (bytes)
system.membus.pkt_size_system.l2.mem_side::total     73260288                       # Cumulative packet size per connected master and slave (bytes)
system.membus.pkt_size::total                73260288                       # Cumulative packet size per connected master and slave (bytes)
system.membus.snoops                                0                       # Total snoops (count)
system.membus.snoopTraffic                          0                       # Total snoop traffic (bytes)
system.membus.snoop_fanout::samples            592290                       # Request fanout histogram
system.membus.snoop_fanout::mean                    0                       # Request fanout histogram
system.membus.snoop_fanout::stdev                   0                       # Request fanout histogram
system.membus.snoop_fanout::underflows              0      0.00%      0.00% # Request fanout histogram
system.membus.snoop_fanout::0                  592290    100.00%    100.00% # Request fanout histogram
system.membus.snoop_fanout::1                       0      0.00%    100.00% # Request fanout histogram
system.membus.snoop_fanout::overflows               0      0.00%    100.00% # Request fanout histogram
system.membus.snoop_fanout::min_value               0                       # Request fanout histogram
system.membus.snoop_fanout::max_value               0                       # Request fanout histogram
system.membus.snoop_fanout::total              592290                       # Request fanout histogram
system.membus.reqLayer4.occupancy          3609508500                       # Layer occupancy (ticks)
system.membus.reqLayer4.utilization              10.5                       # Layer utilization (%)
system.membus.respLayer1.occupancy         3105726250                       # Layer occupancy (ticks)
system.membus.respLayer1.utilization              9.0                       # Layer utilization (%)
system.membus.power_state.pwrStateResidencyTicks::UNDEFINED  34389788000                       # Cumulative time (in ticks) in various power states
system.voltage_domain.voltage                       1                       # Voltage in Volts
system.clk_domain.clock                          1000                       # Clock period in ticks
system.cpu0.icache.demand_hits::.cpu0.inst      4215381                       # number of demand (read+write) hits
system.cpu0.icache.demand_hits::total         4215381                       # number of demand (read+write) hits
system.cpu0.icache.overall_hits::.cpu0.inst      4215381                       # number of overall hits
system.cpu0.icache.overall_hits::total        4215381                       # number of overall hits
system.cpu0.icache.demand_misses::.cpu0.inst      1142337                       # number of demand (read+write) misses
system.cpu0.icache.demand_misses::total       1142337                       # number of demand (read+write) misses
system.cpu0.icache.overall_misses::.cpu0.inst      1142337                       # number of overall misses
system.cpu0.icache.overall_misses::total      1142337                       # number of overall misses
system.cpu0.icache.demand_miss_latency::.cpu0.inst  16312856000                       # number of demand (read+write) miss cycles
system.cpu0.icache.demand_miss_latency::total  16312856000                       # number of demand (read+write) miss cycles
system.cpu0.icache.overall_miss_latency::.cpu0.inst  16312856000                       # number of overall miss cycles
system.cpu0.icache.overall_miss_latency::total  16312856000                       # number of overall miss cycles
system.cpu0.icache.demand_accesses::.cpu0.inst      5357718                       # number of demand (read+write) accesses
system.cpu0.icache.demand_accesses::total      5357718                       # number of demand (read+write) accesses
system.cpu0.icache.overall_accesses::.cpu0.inst      5357718                       # number of overall (read+write) accesses
system.cpu0.icache.overall_accesses::total      5357718                       # number of overall (read+write) accesses
system.cpu0.icache.demand_miss_rate::.cpu0.inst     0.213213                       # miss rate for demand accesses
system.cpu0.icache.demand_miss_rate::total     0.213213                       # miss rate for demand accesses
system.cpu0.icache.overall_miss_rate::.cpu0.inst     0.213213                       # miss rate for overall accesses
system.cpu0.icache.overall_miss_rate::total     0.213213                       # miss rate for overall accesses
system.cpu0.icache.demand_avg_miss_latency::.cpu0.inst 14280.248298                       # average overall miss latency
system.cpu0.icache.demand_avg_miss_latency::total 14280.248298                       # average overall miss latency
system.cpu0.icache.overall_avg_miss_latency::.cpu0.inst 14280.248298                       # average overall miss latency
system.cpu0.icache.overall_avg_miss_latency::total 14280.248298                       # average overall miss latency
system.cpu0.icache.blocked_cycles::no_mshrs            0                       # number of cycles access was blocked
system.cpu0.icache.blocked_cycles::no_targets            0                       # number of cycles access was blocked
system.cpu0.icache.blocked::no_mshrs                0                       # number of cycles access was blocked
system.cpu0.icache.blocked::no_targets              0                       # number of cycles access was blocked
system.cpu0.icache.avg_blocked_cycles::no_mshrs          nan                       # average number of cycles each access was blocked
system.cpu0.icache.avg_blocked_cycles::no_targets          nan                       # average number of cycles each access was blocked
system.cpu0.icache.writebacks::.writebacks      1142320                       # number of writebacks
system.cpu0.icache.writebacks::total          1142320                       # number of writebacks
system.cpu0.icache.demand_mshr_misses::.cpu0.inst      1142337                       # number of demand (read+write) MSHR misses
system.cpu0.icache.demand_mshr_misses::total      1142337                       # number of demand (read+write) MSHR misses
system.cpu0.icache.overall_mshr_misses::.cpu0.inst      1142337                       # number of overall MSHR misses
system.cpu0.icache.overall_mshr_misses::total      1142337                       # number of overall MSHR misses
system.cpu0.icache.demand_mshr_miss_latency::.cpu0.inst  15170520000                       # number of demand (read+write) MSHR miss cycles
system.cpu0.icache.demand_mshr_miss_latency::total  15170520000                       # number of demand (read+write) MSHR miss cycles
system.cpu0.icache.overall_mshr_miss_latency::.cpu0.inst  15170520000                       # number of overall MSHR miss cycles
system.cpu0.icache.overall_mshr_miss_latency::total  15170520000                       # number of overall MSHR miss cycles
system.cpu0.icache.demand_mshr_miss_rate::.cpu0.inst     0.213213                       # mshr miss rate for demand accesses
system.cpu0.icache.demand_mshr_miss_rate::total     0.213213                       # mshr miss rate for demand accesses
system.cpu0.icache.overall_mshr_miss_rate::.cpu0.inst     0.213213                       # mshr miss rate for overall accesses
system.cpu0.icache.overall_mshr_miss_rate::total     0.213213                       # mshr miss rate for overall accesses
system.cpu0.icache.demand_avg_mshr_miss_latency::.cpu0.inst 13280.249173                       # average overall mshr miss latency
system.cpu0.icache.demand_avg_mshr_miss_latency::total 13280.249173                       # average overall mshr miss latency
system.cpu0.icache.overall_avg_mshr_miss_latency::.cpu0.inst 13280.249173                       # average overall mshr miss latency
system.cpu0.icache.overall_avg_mshr_miss_latency::total 13280.249173                       # average overall mshr miss latency
system.cpu0.icache.replacements               1142320                       # number of replacements
system.cpu0.icache.ReadReq_hits::.cpu0.inst      4215381                       # number of ReadReq hits
system.cpu0.icache.ReadReq_hits::total        4215381                       # number of ReadReq hits
system.cpu0.icache.ReadReq_misses::.cpu0.inst      1142337                       # number of ReadReq misses
system.cpu0.icache.ReadReq_misses::total      1142337                       # number of ReadReq misses
system.cpu0.icache.ReadReq_miss_latency::.cpu0.inst  16312856000                       # number of ReadReq miss cycles
system.cpu0.icache.ReadReq_miss_latency::total  16312856000                       # number of ReadReq miss cycles
system.cpu0.icache.ReadReq_accesses::.cpu0.inst      5357718                       # number of ReadReq accesses(hits+misses)
system.cpu0.icache.ReadReq_accesses::total      5357718                       # number of ReadReq accesses(hits+misses)
system.cpu0.icache.ReadReq_miss_rate::.cpu0.inst     0.213213                       # miss rate for ReadReq accesses
system.cpu0.icache.ReadReq_miss_rate::total     0.213213                       # miss rate for ReadReq accesses
system.cpu0.icache.ReadReq_avg_miss_latency::.cpu0.inst 14280.248298                       # average ReadReq miss latency
system.cpu0.icache.ReadReq_avg_miss_latency::total 14280.248298                       # average ReadReq miss latency
system.cpu0.icache.ReadReq_mshr_misses::.cpu0.inst      1142337                       # number of ReadReq MSHR misses
system.cpu0.icache.ReadReq_mshr_misses::total      1142337                       # number of ReadReq MSHR misses
system.cpu0.icache.ReadReq_mshr_miss_latency::.cpu0.inst  15170520000                       # number of ReadReq MSHR miss cycles
system.cpu0.icache.ReadReq_mshr_miss_latency::total  15170520000                       # number of ReadReq MSHR miss cycles
system.cpu0.icache.ReadReq_mshr_miss_rate::.cpu0.inst     0.213213                       # mshr miss rate for ReadReq accesses
system.cpu0.icache.ReadReq_mshr_miss_rate::total     0.213213                       # mshr miss rate for ReadReq accesses
system.cpu0.icache.ReadReq_avg_mshr_miss_latency::.cpu0.inst 13280.249173                       # average ReadReq mshr miss latency
system.cpu0.icache.ReadReq_avg_mshr_miss_latency::total 13280.249173                       # average ReadReq mshr miss latency
system.cpu0.icache.power_state.pwrStateResidencyTicks::UNDEFINED  34389788000                       # Cumulative time (in ticks) in various power states
system.cpu0.icache.tags.tagsinuse           15.999603                       # Cycle average of tags in use
system.cpu0.icache.tags.total_refs            5357717                       # Total number of references to valid blocks.
system.cpu0.icache.tags.sampled_refs          1142336                       # Sample count of references to valid blocks.
system.cpu0.icache.tags.avg_refs             4.690141                       # Average number of references to valid blocks.
system.cpu0.icache.tags.warmup_cycle            87500                       # Cycle when the warmup percentage was hit.
system.cpu0.icache.tags.occ_blocks::.cpu0.inst    15.999603                       # Average occupied blocks per requestor
system.cpu0.icache.tags.occ_percent::.cpu0.inst     0.999975                       # Average percentage of cache occupancy
system.cpu0.icache.tags.occ_percent::total     0.999975                       # Average percentage of cache occupancy
system.cpu0.icache.tags.occ_task_id_blocks::1024           16                       # Occupied blocks per task id
system.cpu0.icache.tags.age_task_id_blocks_1024::0           16                       # Occupied blocks per task id
system.cpu0.icache.tags.occ_task_id_percent::1024            1                       # Percentage of cache occupancy per task id
system.cpu0.icache.tags.tag_accesses         44004080                       # Number of tag accesses
system.cpu0.icache.tags.data_accesses        44004080                       # Number of data accesses
system.cpu0.icache.tags.power_state.pwrStateResidencyTicks::UNDEFINED  34389788000                       # Cumulative time (in ticks) in various power states
system.cpu0.dtb.walker.power_state.pwrStateResidencyTicks::UNDEFINED  34389788000                       # Cumulative time (in ticks) in various power states
system.cpu0.interrupts.clk_domain.clock          8000                       # Clock period in ticks
system.cpu0.itb_walker_cache.blocked_cycles::no_mshrs            0                       # number of cycles access was blocked
system.cpu0.itb_walker_cache.blocked_cycles::no_targets            0                       # number of cycles access was blocked
system.cpu0.itb_walker_cache.blocked::no_mshrs            0                       # number of cycles access was blocked
system.cpu0.itb_walker_cache.blocked::no_targets            0                       # number of cycles access was blocked
system.cpu0.itb_walker_cache.avg_blocked_cycles::no_mshrs          nan                       # average number of cycles each access was blocked
system.cpu0.itb_walker_cache.avg_blocked_cycles::no_targets          nan                       # average number of cycles each access was blocked
system.cpu0.itb_walker_cache.replacements            0                       # number of replacements
system.cpu0.itb_walker_cache.power_state.pwrStateResidencyTicks::UNDEFINED  34389788000                       # Cumulative time (in ticks) in various power states
system.cpu0.itb_walker_cache.tags.tagsinuse            0                       # Cycle average of tags in use
system.cpu0.itb_walker_cache.tags.total_refs            0                       # Total number of references to valid blocks.
system.cpu0.itb_walker_cache.tags.sampled_refs            0                       # Sample count of references to valid blocks.
system.cpu0.itb_walker_cache.tags.avg_refs          nan                       # Average number of references to valid blocks.
system.cpu0.itb_walker_cache.tags.warmup_cycle            0                       # Cycle when the warmup percentage was hit.
system.cpu0.itb_walker_cache.tags.tag_accesses            0                       # Number of tag accesses
system.cpu0.itb_walker_cache.tags.data_accesses            0                       # Number of data accesses
system.cpu0.itb_walker_cache.tags.power_state.pwrStateResidencyTicks::UNDEFINED  34389788000                       # Cumulative time (in ticks) in various power states
system.cpu0.dtb_walker_cache.blocked_cycles::no_mshrs            0                       # number of cycles access was blocked
system.cpu0.dtb_walker_cache.blocked_cycles::no_targets            0                       # number of cycles access was blocked
system.cpu0.dtb_walker_cache.blocked::no_mshrs            0                       # number of cycles access was blocked
system.cpu0.dtb_walker_cache.blocked::no_targets            0                       # number of cycles access was blocked
system.cpu0.dtb_walker_cache.avg_blocked_cycles::no_mshrs          nan                       # average number of cycles each access was blocked
system.cpu0.dtb_walker_cache.avg_blocked_cycles::no_targets          nan                       # average number of cycles each access was blocked
system.cpu0.dtb_walker_cache.replacements            0                       # number of replacements
system.cpu0.dtb_walker_cache.power_state.pwrStateResidencyTicks::UNDEFINED  34389788000                       # Cumulative time (in ticks) in various power states
system.cpu0.dtb_walker_cache.tags.tagsinuse            0                       # Cycle average of tags in use
system.cpu0.dtb_walker_cache.tags.total_refs            0                       # Total number of references to valid blocks.
system.cpu0.dtb_walker_cache.tags.sampled_refs            0                       # Sample count of references to valid blocks.
system.cpu0.dtb_walker_cache.tags.avg_refs          nan                       # Average number of references to valid blocks.
system.cpu0.dtb_walker_cache.tags.warmup_cycle            0                       # Cycle when the warmup percentage was hit.
system.cpu0.dtb_walker_cache.tags.tag_accesses            0                       # Number of tag accesses
system.cpu0.dtb_walker_cache.tags.data_accesses            0                       # Number of data accesses
system.cpu0.dtb_walker_cache.tags.power_state.pwrStateResidencyTicks::UNDEFINED  34389788000                       # Cumulative time (in ticks) in various power states
system.cpu0.dcache.demand_hits::.cpu0.data      3327429                       # number of demand (read+write) hits
system.cpu0.dcache.demand_hits::total         3327429                       # number of demand (read+write) hits
system.cpu0.dcache.overall_hits::.cpu0.data      3328385                       # number of overall hits
system.cpu0.dcache.overall_hits::total        3328385                       # number of overall hits
system.cpu0.dcache.demand_misses::.cpu0.data       462095                       # number of demand (read+write) misses
system.cpu0.dcache.demand_misses::total        462095                       # number of demand (read+write) misses
system.cpu0.dcache.overall_misses::.cpu0.data       463193                       # number of overall misses
system.cpu0.dcache.overall_misses::total       463193                       # number of overall misses
system.cpu0.dcache.demand_miss_latency::.cpu0.data  10421961499                       # number of demand (read+write) miss cycles
system.cpu0.dcache.demand_miss_latency::total  10421961499                       # number of demand (read+write) miss cycles
system.cpu0.dcache.overall_miss_latency::.cpu0.data  10421961499                       # number of overall miss cycles
system.cpu0.dcache.overall_miss_latency::total  10421961499                       # number of overall miss cycles
system.cpu0.dcache.demand_accesses::.cpu0.data      3789524                       # number of demand (read+write) accesses
system.cpu0.dcache.demand_accesses::total      3789524                       # number of demand (read+write) accesses
system.cpu0.dcache.overall_accesses::.cpu0.data      3791578                       # number of overall (read+write) accesses
system.cpu0.dcache.overall_accesses::total      3791578                       # number of overall (read+write) accesses
system.cpu0.dcache.demand_miss_rate::.cpu0.data     0.121940                       # miss rate for demand accesses
system.cpu0.dcache.demand_miss_rate::total     0.121940                       # miss rate for demand accesses
system.cpu0.dcache.overall_miss_rate::.cpu0.data     0.122164                       # miss rate for overall accesses
system.cpu0.dcache.overall_miss_rate::total     0.122164                       # miss rate for overall accesses
system.cpu0.dcache.demand_avg_miss_latency::.cpu0.data 22553.720553                       # average overall miss latency
system.cpu0.dcache.demand_avg_miss_latency::total 22553.720553                       # average overall miss latency
system.cpu0.dcache.overall_avg_miss_latency::.cpu0.data 22500.256910                       # average overall miss latency
system.cpu0.dcache.overall_avg_miss_latency::total 22500.256910                       # average overall miss latency
system.cpu0.dcache.blocked_cycles::no_mshrs           65                       # number of cycles access was blocked
system.cpu0.dcache.blocked_cycles::no_targets            0                       # number of cycles access was blocked
system.cpu0.dcache.blocked::no_mshrs                3                       # number of cycles access was blocked
system.cpu0.dcache.blocked::no_targets              0                       # number of cycles access was blocked
system.cpu0.dcache.avg_blocked_cycles::no_mshrs    21.666667                       # average number of cycles each access was blocked
system.cpu0.dcache.avg_blocked_cycles::no_targets          nan                       # average number of cycles each access was blocked
system.cpu0.dcache.writebacks::.writebacks       191477                       # number of writebacks
system.cpu0.dcache.writebacks::total           191477                       # number of writebacks
system.cpu0.dcache.demand_mshr_hits::.cpu0.data        76330                       # number of demand (read+write) MSHR hits
system.cpu0.dcache.demand_mshr_hits::total        76330                       # number of demand (read+write) MSHR hits
system.cpu0.dcache.overall_mshr_hits::.cpu0.data        76330                       # number of overall MSHR hits
system.cpu0.dcache.overall_mshr_hits::total        76330                       # number of overall MSHR hits
system.cpu0.dcache.demand_mshr_misses::.cpu0.data       385765                       # number of demand (read+write) MSHR misses
system.cpu0.dcache.demand_mshr_misses::total       385765                       # number of demand (read+write) MSHR misses
system.cpu0.dcache.overall_mshr_misses::.cpu0.data       386803                       # number of overall MSHR misses
system.cpu0.dcache.overall_mshr_misses::total       386803                       # number of overall MSHR misses
system.cpu0.dcache.demand_mshr_miss_latency::.cpu0.data   7857913500                       # number of demand (read+write) MSHR miss cycles
system.cpu0.dcache.demand_mshr_miss_latency::total   7857913500                       # number of demand (read+write) MSHR miss cycles
system.cpu0.dcache.overall_mshr_miss_latency::.cpu0.data   7892546500                       # number of overall MSHR miss cycles
system.cpu0.dcache.overall_mshr_miss_latency::total   7892546500                       # number of overall MSHR miss cycles
system.cpu0.dcache.demand_mshr_miss_rate::.cpu0.data     0.101798                       # mshr miss rate for demand accesses
system.cpu0.dcache.demand_mshr_miss_rate::total     0.101798                       # mshr miss rate for demand accesses
system.cpu0.dcache.overall_mshr_miss_rate::.cpu0.data     0.102016                       # mshr miss rate for overall accesses
system.cpu0.dcache.overall_mshr_miss_rate::total     0.102016                       # mshr miss rate for overall accesses
system.cpu0.dcache.demand_avg_mshr_miss_latency::.cpu0.data 20369.690096                       # average overall mshr miss latency
system.cpu0.dcache.demand_avg_mshr_miss_latency::total 20369.690096                       # average overall mshr miss latency
system.cpu0.dcache.overall_avg_mshr_miss_latency::.cpu0.data 20404.563822                       # average overall mshr miss latency
system.cpu0.dcache.overall_avg_mshr_miss_latency::total 20404.563822                       # average overall mshr miss latency
system.cpu0.dcache.replacements                386787                       # number of replacements
system.cpu0.dcache.ReadReq_hits::.cpu0.data      2074824                       # number of ReadReq hits
system.cpu0.dcache.ReadReq_hits::total        2074824                       # number of ReadReq hits
system.cpu0.dcache.ReadReq_misses::.cpu0.data       297599                       # number of ReadReq misses
system.cpu0.dcache.ReadReq_misses::total       297599                       # number of ReadReq misses
system.cpu0.dcache.ReadReq_miss_latency::.cpu0.data   5867276500                       # number of ReadReq miss cycles
system.cpu0.dcache.ReadReq_miss_latency::total   5867276500                       # number of ReadReq miss cycles
system.cpu0.dcache.ReadReq_accesses::.cpu0.data      2372423                       # number of ReadReq accesses(hits+misses)
system.cpu0.dcache.ReadReq_accesses::total      2372423                       # number of ReadReq accesses(hits+misses)
system.cpu0.dcache.ReadReq_miss_rate::.cpu0.data     0.125441                       # miss rate for ReadReq accesses
system.cpu0.dcache.ReadReq_miss_rate::total     0.125441                       # miss rate for ReadReq accesses
system.cpu0.dcache.ReadReq_avg_miss_latency::.cpu0.data 19715.377068                       # average ReadReq miss latency
system.cpu0.dcache.ReadReq_avg_miss_latency::total 19715.377068                       # average ReadReq miss latency
system.cpu0.dcache.ReadReq_mshr_hits::.cpu0.data        12923                       # number of ReadReq MSHR hits
system.cpu0.dcache.ReadReq_mshr_hits::total        12923                       # number of ReadReq MSHR hits
system.cpu0.dcache.ReadReq_mshr_misses::.cpu0.data       284676                       # number of ReadReq MSHR misses
system.cpu0.dcache.ReadReq_mshr_misses::total       284676                       # number of ReadReq MSHR misses
system.cpu0.dcache.ReadReq_mshr_miss_latency::.cpu0.data   5297734000                       # number of ReadReq MSHR miss cycles
system.cpu0.dcache.ReadReq_mshr_miss_latency::total   5297734000                       # number of ReadReq MSHR miss cycles
system.cpu0.dcache.ReadReq_mshr_miss_rate::.cpu0.data     0.119994                       # mshr miss rate for ReadReq accesses
system.cpu0.dcache.ReadReq_mshr_miss_rate::total     0.119994                       # mshr miss rate for ReadReq accesses
system.cpu0.dcache.ReadReq_avg_mshr_miss_latency::.cpu0.data 18609.696638                       # average ReadReq mshr miss latency
system.cpu0.dcache.ReadReq_avg_mshr_miss_latency::total 18609.696638                       # average ReadReq mshr miss latency
system.cpu0.dcache.WriteReq_hits::.cpu0.data      1252605                       # number of WriteReq hits
system.cpu0.dcache.WriteReq_hits::total       1252605                       # number of WriteReq hits
system.cpu0.dcache.WriteReq_misses::.cpu0.data       164496                       # number of WriteReq misses
system.cpu0.dcache.WriteReq_misses::total       164496                       # number of WriteReq misses
system.cpu0.dcache.WriteReq_miss_latency::.cpu0.data   4554684999                       # number of WriteReq miss cycles
system.cpu0.dcache.WriteReq_miss_latency::total   4554684999                       # number of WriteReq miss cycles
system.cpu0.dcache.WriteReq_accesses::.cpu0.data      1417101                       # number of WriteReq accesses(hits+misses)
system.cpu0.dcache.WriteReq_accesses::total      1417101                       # number of WriteReq accesses(hits+misses)
system.cpu0.dcache.WriteReq_miss_rate::.cpu0.data     0.116079                       # miss rate for WriteReq accesses
system.cpu0.dcache.WriteReq_miss_rate::total     0.116079                       # miss rate for WriteReq accesses
system.cpu0.dcache.WriteReq_avg_miss_latency::.cpu0.data 27688.727987                       # average WriteReq miss latency
system.cpu0.dcache.WriteReq_avg_miss_latency::total 27688.727987                       # average WriteReq miss latency
system.cpu0.dcache.WriteReq_mshr_hits::.cpu0.data        63407                       # number of WriteReq MSHR hits
system.cpu0.dcache.WriteReq_mshr_hits::total        63407                       # number of WriteReq MSHR hits
system.cpu0.dcache.WriteReq_mshr_misses::.cpu0.data       101089                       # number of WriteReq MSHR misses
system.cpu0.dcache.WriteReq_mshr_misses::total       101089                       # number of WriteReq MSHR misses
system.cpu0.dcache.WriteReq_mshr_miss_latency::.cpu0.data   2560179500                       # number of WriteReq MSHR miss cycles
system.cpu0.dcache.WriteReq_mshr_miss_latency::total   2560179500                       # number of WriteReq MSHR miss cycles
system.cpu0.dcache.WriteReq_mshr_miss_rate::.cpu0.data     0.071335                       # mshr miss rate for WriteReq accesses
system.cpu0.dcache.WriteReq_mshr_miss_rate::total     0.071335                       # mshr miss rate for WriteReq accesses
system.cpu0.dcache.WriteReq_avg_mshr_miss_latency::.cpu0.data 25325.994915                       # average WriteReq mshr miss latency
system.cpu0.dcache.WriteReq_avg_mshr_miss_latency::total 25325.994915                       # average WriteReq mshr miss latency
system.cpu0.dcache.SoftPFReq_hits::.cpu0.data          956                       # number of SoftPFReq hits
system.cpu0.dcache.SoftPFReq_hits::total          956                       # number of SoftPFReq hits
system.cpu0.dcache.SoftPFReq_misses::.cpu0.data         1098                       # number of SoftPFReq misses
system.cpu0.dcache.SoftPFReq_misses::total         1098                       # number of SoftPFReq misses
system.cpu0.dcache.SoftPFReq_accesses::.cpu0.data         2054                       # number of SoftPFReq accesses(hits+misses)
system.cpu0.dcache.SoftPFReq_accesses::total         2054                       # number of SoftPFReq accesses(hits+misses)
system.cpu0.dcache.SoftPFReq_miss_rate::.cpu0.data     0.534567                       # miss rate for SoftPFReq accesses
system.cpu0.dcache.SoftPFReq_miss_rate::total     0.534567                       # miss rate for SoftPFReq accesses
system.cpu0.dcache.SoftPFReq_mshr_misses::.cpu0.data         1038                       # number of SoftPFReq MSHR misses
system.cpu0.dcache.SoftPFReq_mshr_misses::total         1038                       # number of SoftPFReq MSHR misses
system.cpu0.dcache.SoftPFReq_mshr_miss_latency::.cpu0.data     34633000                       # number of SoftPFReq MSHR miss cycles
system.cpu0.dcache.SoftPFReq_mshr_miss_latency::total     34633000                       # number of SoftPFReq MSHR miss cycles
system.cpu0.dcache.SoftPFReq_mshr_miss_rate::.cpu0.data     0.505355                       # mshr miss rate for SoftPFReq accesses
system.cpu0.dcache.SoftPFReq_mshr_miss_rate::total     0.505355                       # mshr miss rate for SoftPFReq accesses
system.cpu0.dcache.SoftPFReq_avg_mshr_miss_latency::.cpu0.data 33365.125241                       # average SoftPFReq mshr miss latency
system.cpu0.dcache.SoftPFReq_avg_mshr_miss_latency::total 33365.125241                       # average SoftPFReq mshr miss latency
system.cpu0.dcache.power_state.pwrStateResidencyTicks::UNDEFINED  34389788000                       # Cumulative time (in ticks) in various power states
system.cpu0.dcache.tags.tagsinuse           15.999628                       # Cycle average of tags in use
system.cpu0.dcache.tags.total_refs            3715188                       # Total number of references to valid blocks.
system.cpu0.dcache.tags.sampled_refs           386803                       # Sample count of references to valid blocks.
system.cpu0.dcache.tags.avg_refs             9.604858                       # Average number of references to valid blocks.
system.cpu0.dcache.tags.warmup_cycle           178500                       # Cycle when the warmup percentage was hit.
system.cpu0.dcache.tags.occ_blocks::.cpu0.data    15.999628                       # Average occupied blocks per requestor
system.cpu0.dcache.tags.occ_percent::.cpu0.data     0.999977                       # Average percentage of cache occupancy
system.cpu0.dcache.tags.occ_percent::total     0.999977                       # Average percentage of cache occupancy
system.cpu0.dcache.tags.occ_task_id_blocks::1024           16                       # Occupied blocks per task id
system.cpu0.dcache.tags.age_task_id_blocks_1024::0           16                       # Occupied blocks per task id
system.cpu0.dcache.tags.occ_task_id_percent::1024            1                       # Percentage of cache occupancy per task id
system.cpu0.dcache.tags.tag_accesses         30719427                       # Number of tag accesses
system.cpu0.dcache.tags.data_accesses        30719427                       # Number of data accesses
system.cpu0.dcache.tags.power_state.pwrStateResidencyTicks::UNDEFINED  34389788000                       # Cumulative time (in ticks) in various power states
system.cpu0.power_state.pwrStateResidencyTicks::ON  34389788000                       # Cumulative time (in ticks) in various power states
system.cpu0.itb.walker.power_state.pwrStateResidencyTicks::UNDEFINED  34389788000                       # Cumulative time (in ticks) in various power states
system.cpu1.icache.demand_hits::.cpu1.inst      1369097                       # number of demand (read+write) hits
system.cpu1.icache.demand_hits::total         1369097                       # number of demand (read+write) hits
system.cpu1.icache.overall_hits::.cpu1.inst      1369097                       # number of overall hits
system.cpu1.icache.overall_hits::total        1369097                       # number of overall hits
system.cpu1.icache.demand_misses::.cpu1.inst        11085                       # number of demand (read+write) misses
system.cpu1.icache.demand_misses::total         11085                       # number of demand (read+write) misses
system.cpu1.icache.overall_misses::.cpu1.inst        11085                       # number of overall misses
system.cpu1.icache.overall_misses::total        11085                       # number of overall misses
system.cpu1.icache.demand_miss_latency::.cpu1.inst    327376000                       # number of demand (read+write) miss cycles
system.cpu1.icache.demand_miss_latency::total    327376000                       # number of demand (read+write) miss cycles
system.cpu1.icache.overall_miss_latency::.cpu1.inst    327376000                       # number of overall miss cycles
system.cpu1.icache.overall_miss_latency::total    327376000                       # number of overall miss cycles
system.cpu1.icache.demand_accesses::.cpu1.inst      1380182                       # number of demand (read+write) accesses
system.cpu1.icache.demand_accesses::total      1380182                       # number of demand (read+write) accesses
system.cpu1.icache.overall_accesses::.cpu1.inst      1380182                       # number of overall (read+write) accesses
system.cpu1.icache.overall_accesses::total      1380182                       # number of overall (read+write) accesses
system.cpu1.icache.demand_miss_rate::.cpu1.inst     0.008032                       # miss rate for demand accesses
system.cpu1.icache.demand_miss_rate::total     0.008032                       # miss rate for demand accesses
system.cpu1.icache.overall_miss_rate::.cpu1.inst     0.008032                       # miss rate for overall accesses
system.cpu1.icache.overall_miss_rate::total     0.008032                       # miss rate for overall accesses
system.cpu1.icache.demand_avg_miss_latency::.cpu1.inst 29533.243121                       # average overall miss latency
system.cpu1.icache.demand_avg_miss_latency::total 29533.243121                       # average overall miss latency
system.cpu1.icache.overall_avg_miss_latency::.cpu1.inst 29533.243121                       # average overall miss latency
system.cpu1.icache.overall_avg_miss_latency::total 29533.243121                       # average overall miss latency
system.cpu1.icache.blocked_cycles::no_mshrs            0                       # number of cycles access was blocked
system.cpu1.icache.blocked_cycles::no_targets            0                       # number of cycles access was blocked
system.cpu1.icache.blocked::no_mshrs                0                       # number of cycles access was blocked
system.cpu1.icache.blocked::no_targets              0                       # number of cycles access was blocked
system.cpu1.icache.avg_blocked_cycles::no_mshrs          nan                       # average number of cycles each access was blocked
system.cpu1.icache.avg_blocked_cycles::no_targets          nan                       # average number of cycles each access was blocked
system.cpu1.icache.writebacks::.writebacks        11069                       # number of writebacks
system.cpu1.icache.writebacks::total            11069                       # number of writebacks
system.cpu1.icache.demand_mshr_misses::.cpu1.inst        11085                       # number of demand (read+write) MSHR misses
system.cpu1.icache.demand_mshr_misses::total        11085                       # number of demand (read+write) MSHR misses
system.cpu1.icache.overall_mshr_misses::.cpu1.inst        11085                       # number of overall MSHR misses
system.cpu1.icache.overall_mshr_misses::total        11085                       # number of overall MSHR misses
system.cpu1.icache.demand_mshr_miss_latency::.cpu1.inst    316291000                       # number of demand (read+write) MSHR miss cycles
system.cpu1.icache.demand_mshr_miss_latency::total    316291000                       # number of demand (read+write) MSHR miss cycles
system.cpu1.icache.overall_mshr_miss_latency::.cpu1.inst    316291000                       # number of overall MSHR miss cycles
system.cpu1.icache.overall_mshr_miss_latency::total    316291000                       # number of overall MSHR miss cycles
system.cpu1.icache.demand_mshr_miss_rate::.cpu1.inst     0.008032                       # mshr miss rate for demand accesses
system.cpu1.icache.demand_mshr_miss_rate::total     0.008032                       # mshr miss rate for demand accesses
system.cpu1.icache.overall_mshr_miss_rate::.cpu1.inst     0.008032                       # mshr miss rate for overall accesses
system.cpu1.icache.overall_mshr_miss_rate::total     0.008032                       # mshr miss rate for overall accesses
system.cpu1.icache.demand_avg_mshr_miss_latency::.cpu1.inst 28533.243121                       # average overall mshr miss latency
system.cpu1.icache.demand_avg_mshr_miss_latency::total 28533.243121                       # average overall mshr miss latency
system.cpu1.icache.overall_avg_mshr_miss_latency::.cpu1.inst 28533.243121                       # average overall mshr miss latency
system.cpu1.icache.overall_avg_mshr_miss_latency::total 28533.243121                       # average overall mshr miss latency
system.cpu1.icache.replacements                 11069                       # number of replacements
system.cpu1.icache.ReadReq_hits::.cpu1.inst      1369097                       # number of ReadReq hits
system.cpu1.icache.ReadReq_hits::total        1369097                       # number of ReadReq hits
system.cpu1.icache.ReadReq_misses::.cpu1.inst        11085                       # number of ReadReq misses
system.cpu1.icache.ReadReq_misses::total        11085                       # number of ReadReq misses
system.cpu1.icache.ReadReq_miss_latency::.cpu1.inst    327376000                       # number of ReadReq miss cycles
system.cpu1.icache.ReadReq_miss_latency::total    327376000                       # number of ReadReq miss cycles
system.cpu1.icache.ReadReq_accesses::.cpu1.inst      1380182                       # number of ReadReq accesses(hits+misses)
system.cpu1.icache.ReadReq_accesses::total      1380182                       # number of ReadReq accesses(hits+misses)
system.cpu1.icache.ReadReq_miss_rate::.cpu1.inst     0.008032                       # miss rate for ReadReq accesses
system.cpu1.icache.ReadReq_miss_rate::total     0.008032                       # miss rate for ReadReq accesses
system.cpu1.icache.ReadReq_avg_miss_latency::.cpu1.inst 29533.243121                       # average ReadReq miss latency
system.cpu1.icache.ReadReq_avg_miss_latency::total 29533.243121                       # average ReadReq miss latency
system.cpu1.icache.ReadReq_mshr_misses::.cpu1.inst        11085                       # number of ReadReq MSHR misses
system.cpu1.icache.ReadReq_mshr_misses::total        11085                       # number of ReadReq MSHR misses
system.cpu1.icache.ReadReq_mshr_miss_latency::.cpu1.inst    316291000                       # number of ReadReq MSHR miss cycles
system.cpu1.icache.ReadReq_mshr_miss_latency::total    316291000                       # number of ReadReq MSHR miss cycles
system.cpu1.icache.ReadReq_mshr_miss_rate::.cpu1.inst     0.008032                       # mshr miss rate for ReadReq accesses
system.cpu1.icache.ReadReq_mshr_miss_rate::total     0.008032                       # mshr miss rate for ReadReq accesses
system.cpu1.icache.ReadReq_avg_mshr_miss_latency::.cpu1.inst 28533.243121                       # average ReadReq mshr miss latency
system.cpu1.icache.ReadReq_avg_mshr_miss_latency::total 28533.243121                       # average ReadReq mshr miss latency
system.cpu1.icache.power_state.pwrStateResidencyTicks::UNDEFINED  34389788000                       # Cumulative time (in ticks) in various power states
system.cpu1.icache.tags.tagsinuse           15.999584                       # Cycle average of tags in use
system.cpu1.icache.tags.total_refs            1380182                       # Total number of references to valid blocks.
system.cpu1.icache.tags.sampled_refs            11085                       # Sample count of references to valid blocks.
system.cpu1.icache.tags.avg_refs           124.508976                       # Average number of references to valid blocks.
system.cpu1.icache.tags.warmup_cycle            94500                       # Cycle when the warmup percentage was hit.
system.cpu1.icache.tags.occ_blocks::.cpu1.inst    15.999584                       # Average occupied blocks per requestor
system.cpu1.icache.tags.occ_percent::.cpu1.inst     0.999974                       # Average percentage of cache occupancy
system.cpu1.icache.tags.occ_percent::total     0.999974                       # Average percentage of cache occupancy
system.cpu1.icache.tags.occ_task_id_blocks::1024           16                       # Occupied blocks per task id
system.cpu1.icache.tags.age_task_id_blocks_1024::4           16                       # Occupied blocks per task id
system.cpu1.icache.tags.occ_task_id_percent::1024            1                       # Percentage of cache occupancy per task id
system.cpu1.icache.tags.tag_accesses         11052541                       # Number of tag accesses
system.cpu1.icache.tags.data_accesses        11052541                       # Number of data accesses
system.cpu1.icache.tags.power_state.pwrStateResidencyTicks::UNDEFINED  34389788000                       # Cumulative time (in ticks) in various power states
system.cpu1.dtb.walker.power_state.pwrStateResidencyTicks::UNDEFINED  34389788000                       # Cumulative time (in ticks) in various power states
system.cpu1.interrupts.clk_domain.clock          8000                       # Clock period in ticks
system.cpu1.itb_walker_cache.blocked_cycles::no_mshrs            0                       # number of cycles access was blocked
system.cpu1.itb_walker_cache.blocked_cycles::no_targets            0                       # number of cycles access was blocked
system.cpu1.itb_walker_cache.blocked::no_mshrs            0                       # number of cycles access was blocked
system.cpu1.itb_walker_cache.blocked::no_targets            0                       # number of cycles access was blocked
system.cpu1.itb_walker_cache.avg_blocked_cycles::no_mshrs          nan                       # average number of cycles each access was blocked
system.cpu1.itb_walker_cache.avg_blocked_cycles::no_targets          nan                       # average number of cycles each access was blocked
system.cpu1.itb_walker_cache.replacements            0                       # number of replacements
system.cpu1.itb_walker_cache.power_state.pwrStateResidencyTicks::UNDEFINED  34389788000                       # Cumulative time (in ticks) in various power states
system.cpu1.itb_walker_cache.tags.tagsinuse            0                       # Cycle average of tags in use
system.cpu1.itb_walker_cache.tags.total_refs            0                       # Total number of references to valid blocks.
system.cpu1.itb_walker_cache.tags.sampled_refs            0                       # Sample count of references to valid blocks.
system.cpu1.itb_walker_cache.tags.avg_refs          nan                       # Average number of references to valid blocks.
system.cpu1.itb_walker_cache.tags.warmup_cycle            0                       # Cycle when the warmup percentage was hit.
system.cpu1.itb_walker_cache.tags.tag_accesses            0                       # Number of tag accesses
system.cpu1.itb_walker_cache.tags.data_accesses            0                       # Number of data accesses
system.cpu1.itb_walker_cache.tags.power_state.pwrStateResidencyTicks::UNDEFINED  34389788000                       # Cumulative time (in ticks) in various power states
system.cpu1.dtb_walker_cache.blocked_cycles::no_mshrs            0                       # number of cycles access was blocked
system.cpu1.dtb_walker_cache.blocked_cycles::no_targets            0                       # number of cycles access was blocked
system.cpu1.dtb_walker_cache.blocked::no_mshrs            0                       # number of cycles access was blocked
system.cpu1.dtb_walker_cache.blocked::no_targets            0                       # number of cycles access was blocked
system.cpu1.dtb_walker_cache.avg_blocked_cycles::no_mshrs          nan                       # average number of cycles each access was blocked
system.cpu1.dtb_walker_cache.avg_blocked_cycles::no_targets          nan                       # average number of cycles each access was blocked
system.cpu1.dtb_walker_cache.replacements            0                       # number of replacements
system.cpu1.dtb_walker_cache.power_state.pwrStateResidencyTicks::UNDEFINED  34389788000                       # Cumulative time (in ticks) in various power states
system.cpu1.dtb_walker_cache.tags.tagsinuse            0                       # Cycle average of tags in use
system.cpu1.dtb_walker_cache.tags.total_refs            0                       # Total number of references to valid blocks.
system.cpu1.dtb_walker_cache.tags.sampled_refs            0                       # Sample count of references to valid blocks.
system.cpu1.dtb_walker_cache.tags.avg_refs          nan                       # Average number of references to valid blocks.
system.cpu1.dtb_walker_cache.tags.warmup_cycle            0                       # Cycle when the warmup percentage was hit.
system.cpu1.dtb_walker_cache.tags.tag_accesses            0                       # Number of tag accesses
system.cpu1.dtb_walker_cache.tags.data_accesses            0                       # Number of data accesses
system.cpu1.dtb_walker_cache.tags.power_state.pwrStateResidencyTicks::UNDEFINED  34389788000                       # Cumulative time (in ticks) in various power states
system.cpu1.dcache.demand_hits::.cpu1.data      4307823                       # number of demand (read+write) hits
system.cpu1.dcache.demand_hits::total         4307823                       # number of demand (read+write) hits
system.cpu1.dcache.overall_hits::.cpu1.data      4307823                       # number of overall hits
system.cpu1.dcache.overall_hits::total        4307823                       # number of overall hits
system.cpu1.dcache.demand_misses::.cpu1.data       863511                       # number of demand (read+write) misses
system.cpu1.dcache.demand_misses::total        863511                       # number of demand (read+write) misses
system.cpu1.dcache.overall_misses::.cpu1.data       863511                       # number of overall misses
system.cpu1.dcache.overall_misses::total       863511                       # number of overall misses
system.cpu1.dcache.demand_miss_latency::.cpu1.data  58675972000                       # number of demand (read+write) miss cycles
system.cpu1.dcache.demand_miss_latency::total  58675972000                       # number of demand (read+write) miss cycles
system.cpu1.dcache.overall_miss_latency::.cpu1.data  58675972000                       # number of overall miss cycles
system.cpu1.dcache.overall_miss_latency::total  58675972000                       # number of overall miss cycles
system.cpu1.dcache.demand_accesses::.cpu1.data      5171334                       # number of demand (read+write) accesses
system.cpu1.dcache.demand_accesses::total      5171334                       # number of demand (read+write) accesses
system.cpu1.dcache.overall_accesses::.cpu1.data      5171334                       # number of overall (read+write) accesses
system.cpu1.dcache.overall_accesses::total      5171334                       # number of overall (read+write) accesses
system.cpu1.dcache.demand_miss_rate::.cpu1.data     0.166980                       # miss rate for demand accesses
system.cpu1.dcache.demand_miss_rate::total     0.166980                       # miss rate for demand accesses
system.cpu1.dcache.overall_miss_rate::.cpu1.data     0.166980                       # miss rate for overall accesses
system.cpu1.dcache.overall_miss_rate::total     0.166980                       # miss rate for overall accesses
system.cpu1.dcache.demand_avg_miss_latency::.cpu1.data 67950.462704                       # average overall miss latency
system.cpu1.dcache.demand_avg_miss_latency::total 67950.462704                       # average overall miss latency
system.cpu1.dcache.overall_avg_miss_latency::.cpu1.data 67950.462704                       # average overall miss latency
system.cpu1.dcache.overall_avg_miss_latency::total 67950.462704                       # average overall miss latency
system.cpu1.dcache.blocked_cycles::no_mshrs            0                       # number of cycles access was blocked
system.cpu1.dcache.blocked_cycles::no_targets            0                       # number of cycles access was blocked
system.cpu1.dcache.blocked::no_mshrs                0                       # number of cycles access was blocked
system.cpu1.dcache.blocked::no_targets              0                       # number of cycles access was blocked
system.cpu1.dcache.avg_blocked_cycles::no_mshrs          nan                       # average number of cycles each access was blocked
system.cpu1.dcache.avg_blocked_cycles::no_targets          nan                       # average number of cycles each access was blocked
system.cpu1.dcache.writebacks::.writebacks       535478                       # number of writebacks
system.cpu1.dcache.writebacks::total           535478                       # number of writebacks
system.cpu1.dcache.demand_mshr_hits::.cpu1.data       320440                       # number of demand (read+write) MSHR hits
system.cpu1.dcache.demand_mshr_hits::total       320440                       # number of demand (read+write) MSHR hits
system.cpu1.dcache.overall_mshr_hits::.cpu1.data       320440                       # number of overall MSHR hits
system.cpu1.dcache.overall_mshr_hits::total       320440                       # number of overall MSHR hits
system.cpu1.dcache.demand_mshr_misses::.cpu1.data       543071                       # number of demand (read+write) MSHR misses
system.cpu1.dcache.demand_mshr_misses::total       543071                       # number of demand (read+write) MSHR misses
system.cpu1.dcache.overall_mshr_misses::.cpu1.data       543071                       # number of overall MSHR misses
system.cpu1.dcache.overall_mshr_misses::total       543071                       # number of overall MSHR misses
system.cpu1.dcache.demand_mshr_miss_latency::.cpu1.data  46392559000                       # number of demand (read+write) MSHR miss cycles
system.cpu1.dcache.demand_mshr_miss_latency::total  46392559000                       # number of demand (read+write) MSHR miss cycles
system.cpu1.dcache.overall_mshr_miss_latency::.cpu1.data  46392559000                       # number of overall MSHR miss cycles
system.cpu1.dcache.overall_mshr_miss_latency::total  46392559000                       # number of overall MSHR miss cycles
system.cpu1.dcache.demand_mshr_miss_rate::.cpu1.data     0.105016                       # mshr miss rate for demand accesses
system.cpu1.dcache.demand_mshr_miss_rate::total     0.105016                       # mshr miss rate for demand accesses
system.cpu1.dcache.overall_mshr_miss_rate::.cpu1.data     0.105016                       # mshr miss rate for overall accesses
system.cpu1.dcache.overall_mshr_miss_rate::total     0.105016                       # mshr miss rate for overall accesses
system.cpu1.dcache.demand_avg_mshr_miss_latency::.cpu1.data 85426.323630                       # average overall mshr miss latency
system.cpu1.dcache.demand_avg_mshr_miss_latency::total 85426.323630                       # average overall mshr miss latency
system.cpu1.dcache.overall_avg_mshr_miss_latency::.cpu1.data 85426.323630                       # average overall mshr miss latency
system.cpu1.dcache.overall_avg_mshr_miss_latency::total 85426.323630                       # average overall mshr miss latency
system.cpu1.dcache.replacements                543054                       # number of replacements
system.cpu1.dcache.ReadReq_hits::.cpu1.data       893217                       # number of ReadReq hits
system.cpu1.dcache.ReadReq_hits::total         893217                       # number of ReadReq hits
system.cpu1.dcache.ReadReq_misses::.cpu1.data         9377                       # number of ReadReq misses
system.cpu1.dcache.ReadReq_misses::total         9377                       # number of ReadReq misses
system.cpu1.dcache.ReadReq_miss_latency::.cpu1.data    392057500                       # number of ReadReq miss cycles
system.cpu1.dcache.ReadReq_miss_latency::total    392057500                       # number of ReadReq miss cycles
system.cpu1.dcache.ReadReq_accesses::.cpu1.data       902594                       # number of ReadReq accesses(hits+misses)
system.cpu1.dcache.ReadReq_accesses::total       902594                       # number of ReadReq accesses(hits+misses)
system.cpu1.dcache.ReadReq_miss_rate::.cpu1.data     0.010389                       # miss rate for ReadReq accesses
system.cpu1.dcache.ReadReq_miss_rate::total     0.010389                       # miss rate for ReadReq accesses
system.cpu1.dcache.ReadReq_avg_miss_latency::.cpu1.data 41810.547083                       # average ReadReq miss latency
system.cpu1.dcache.ReadReq_avg_miss_latency::total 41810.547083                       # average ReadReq miss latency
system.cpu1.dcache.ReadReq_mshr_hits::.cpu1.data          335                       # number of ReadReq MSHR hits
system.cpu1.dcache.ReadReq_mshr_hits::total          335                       # number of ReadReq MSHR hits
[...]
system.mem_ctrls.bytesPerActivate::0-127        28445     24.91%     24.91% # Bytes accessed per row activation
system.mem_ctrls.bytesPerActivate::128-255        10234      8.96%     33.87% # Bytes accessed per row activation
system.mem_ctrls.bytesPerActivate::256-383         3625      3.17%     37.05% # Bytes accessed per row activation
system.mem_ctrls.bytesPerActivate::384-511         2957      2.59%     39.64% # Bytes accessed per row activation
system.mem_ctrls.bytesPerActivate::512-639         2570      2.25%     41.89% # Bytes accessed per row activation
system.mem_ctrls.bytesPerActivate::640-767         2493      2.18%     44.07% # Bytes accessed per row activation
system.mem_ctrls.bytesPerActivate::768-895         2489      2.18%     46.25% # Bytes accessed per row activation
system.mem_ctrls.bytesPerActivate::896-1023         2769      2.42%     48.68% # Bytes accessed per row activation
system.mem_ctrls.bytesPerActivate::1024-1151        58605     51.32%    100.00% # Bytes accessed per row activation
system.mem_ctrls.bytesPerActivate::total       114187                       # Bytes accessed per row activation
system.mem_ctrls.rdPerTurnAround::samples        34442                       # Reads before turning the bus around for writes
system.mem_ctrls.rdPerTurnAround::mean      17.185413                       # Reads before turning the bus around for writes
system.mem_ctrls.rdPerTurnAround::gmean     16.897362                       # Reads before turning the bus around for writes
system.mem_ctrls.rdPerTurnAround::stdev      7.125842                       # Reads before turning the bus around for writes
system.mem_ctrls.rdPerTurnAround::0-31          34338     99.70%     99.70% # Reads before turning the bus around for writes
system.mem_ctrls.rdPerTurnAround::32-63            36      0.10%     99.80% # Reads before turning the bus around for writes
system.mem_ctrls.rdPerTurnAround::64-95            19      0.06%     99.86% # Reads before turning the bus around for writes
system.mem_ctrls.rdPerTurnAround::96-127           20      0.06%     99.92% # Reads before turning the bus around for writes
system.mem_ctrls.rdPerTurnAround::128-159           10      0.03%     99.94% # Reads before turning the bus around for writes
system.mem_ctrls.rdPerTurnAround::160-191            9      0.03%     99.97% # Reads before turning the bus around for writes
system.mem_ctrls.rdPerTurnAround::192-223            2      0.01%     99.98% # Reads before turning the bus around for writes
system.mem_ctrls.rdPerTurnAround::224-255            4      0.01%     99.99% # Reads before turning the bus around for writes
system.mem_ctrls.rdPerTurnAround::288-319            2      0.01%     99.99% # Reads before turning the bus around for writes
system.mem_ctrls.rdPerTurnAround::320-351            1      0.00%    100.00% # Reads before turning the bus around for writes
system.mem_ctrls.rdPerTurnAround::640-671            1      0.00%    100.00% # Reads before turning the bus around for writes
system.mem_ctrls.rdPerTurnAround::total         34442                       # Reads before turning the bus around for writes
system.mem_ctrls.wrPerTurnAround::samples        34442                       # Writes before turning the bus around for reads
system.mem_ctrls.wrPerTurnAround::mean      16.037251                       # Writes before turning the bus around for reads
system.mem_ctrls.wrPerTurnAround::gmean     16.034510                       # Writes before turning the bus around for reads
system.mem_ctrls.wrPerTurnAround::stdev      0.314529                       # Writes before turning the bus around for reads
system.mem_ctrls.wrPerTurnAround::16            33845     98.27%     98.27% # Writes before turning the bus around for reads
system.mem_ctrls.wrPerTurnAround::17              200      0.58%     98.85% # Writes before turning the bus around for reads
system.mem_ctrls.wrPerTurnAround::18              204      0.59%     99.44% # Writes before turning the bus around for reads
system.mem_ctrls.wrPerTurnAround::19              112      0.33%     99.76% # Writes before turning the bus around for reads
system.mem_ctrls.wrPerTurnAround::20               66      0.19%     99.96% # Writes before turning the bus around for reads
system.mem_ctrls.wrPerTurnAround::21               15      0.04%    100.00% # Writes before turning the bus around for reads
system.mem_ctrls.wrPerTurnAround::total         34442                       # Writes before turning the bus around for reads
system.mem_ctrls.bytesReadDRAM               37882240                       # Total number of bytes read from DRAM
system.mem_ctrls.bytesReadWrQ                   24320                       # Total number of bytes read from write queue
system.mem_ctrls.bytesWritten                35350720                       # Total number of bytes written to DRAM
system.mem_ctrls.bytesReadSys                37906560                       # Total read bytes from the system interface side
system.mem_ctrls.bytesWrittenSys             35353728                       # Total written bytes from the system interface side
system.mem_ctrls.avgRdBW                      1101.55                       # Average DRAM read bandwidth in MiByte/s
system.mem_ctrls.avgWrBW                      1027.94                       # Average achieved write bandwidth in MiByte/s
system.mem_ctrls.avgRdBWSys                   1102.26                       # Average system read bandwidth in MiByte/s
system.mem_ctrls.avgWrBWSys                   1028.03                       # Average system write bandwidth in MiByte/s
system.mem_ctrls.peakBW                      12800.00                       # Theoretical peak bandwidth in MiByte/s
system.mem_ctrls.busUtil                        16.64                       # Data bus utilization in percentage
system.mem_ctrls.busUtilRead                     8.61                       # Data bus utilization in percentage for reads
system.mem_ctrls.busUtilWrite                    8.03                       # Data bus utilization in percentage for writes
system.mem_ctrls.totGap                   34389772000                       # Total gap between requests
system.mem_ctrls.avgGap                      30042.82                       # Average gap between requests
system.mem_ctrls.masterReadBytes::.cpu0.inst       948992                       # Per-master bytes read from memory
system.mem_ctrls.masterReadBytes::.cpu0.data      2458048                       # Per-master bytes read from memory
system.mem_ctrls.masterReadBytes::.cpu1.inst       164544                       # Per-master bytes read from memory
system.mem_ctrls.masterReadBytes::.cpu1.data     34310656                       # Per-master bytes read from memory
system.mem_ctrls.masterWriteBytes::.writebacks     35350720                       # Per-master bytes write to memory
system.mem_ctrls.masterReadRate::.cpu0.inst 27595168.658789057285                       # Per-master bytes read from memory rate (Bytes/sec)
system.mem_ctrls.masterReadRate::.cpu0.data 71476102.149859145284                       # Per-master bytes read from memory rate (Bytes/sec)
system.mem_ctrls.masterReadRate::.cpu1.inst 4784676.195154213347                       # Per-master bytes read from memory rate (Bytes/sec)
system.mem_ctrls.masterReadRate::.cpu1.data 997698968.077383995056                       # Per-master bytes read from memory rate (Bytes/sec)
system.mem_ctrls.masterWriteRate::.writebacks 1027942364.750838279724                       # Per-master bytes write to memory rate (Bytes/sec)
system.mem_ctrls.masterReadAccesses::.cpu0.inst        14828                       # Per-master read serviced memory accesses
system.mem_ctrls.masterReadAccesses::.cpu0.data        38676                       # Per-master read serviced memory accesses
system.mem_ctrls.masterReadAccesses::.cpu1.inst         2571                       # Per-master read serviced memory accesses
system.mem_ctrls.masterReadAccesses::.cpu1.data       536215                       # Per-master read serviced memory accesses
system.mem_ctrls.masterWriteAccesses::.writebacks       552402                       # Per-master write serviced memory accesses
system.mem_ctrls.masterReadTotalLat::.cpu0.inst    613037750                       # Per-master read total memory access latency
system.mem_ctrls.masterReadTotalLat::.cpu0.data   1601646000                       # Per-master read total memory access latency
system.mem_ctrls.masterReadTotalLat::.cpu1.inst     73241750                       # Per-master read total memory access latency
system.mem_ctrls.masterReadTotalLat::.cpu1.data  18027231750                       # Per-master read total memory access latency
system.mem_ctrls.masterWriteTotalLat::.writebacks 860470013750                       # Per-master write total memory access latency
system.mem_ctrls.masterReadAvgLat::.cpu0.inst     41343.25                       # Per-master read average memory access latency
system.mem_ctrls.masterReadAvgLat::.cpu0.data     41411.88                       # Per-master read average memory access latency
system.mem_ctrls.masterReadAvgLat::.cpu1.inst     28487.65                       # Per-master read average memory access latency
system.mem_ctrls.masterReadAvgLat::.cpu1.data     33619.41                       # Per-master read average memory access latency
system.mem_ctrls.masterWriteAvgLat::.writebacks   1557688.09                       # Per-master write average memory access latency
system.mem_ctrls.pageHitRate                    90.02                       # Row buffer hit rate, read and write combined
system.mem_ctrls.rank1.actEnergy            439966800                       # Energy for activate commands per rank (pJ)
system.mem_ctrls.rank1.preEnergy            233828925                       # Energy for precharge commands per rank (pJ)
system.mem_ctrls.rank1.readEnergy          2141771520                       # Energy for read commands per rank (pJ)
system.mem_ctrls.rank1.writeEnergy         1448983260                       # Energy for write commands per rank (pJ)
system.mem_ctrls.rank1.refreshEnergy     2714250240.000000                       # Energy for refresh commands per rank (pJ)
system.mem_ctrls.rank1.actBackEnergy      13640239080                       # Energy for active background per rank (pJ)
system.mem_ctrls.rank1.preBackEnergy       1719161760                       # Energy for precharge background per rank (pJ)
system.mem_ctrls.rank1.actPowerDownEnergy            0                       # Energy for active power-down per rank (pJ)
system.mem_ctrls.rank1.prePowerDownEnergy            0                       # Energy for precharge power-down per rank (pJ)
system.mem_ctrls.rank1.selfRefreshEnergy            0                       # Energy for self refresh per rank (pJ)
system.mem_ctrls.rank1.totalEnergy        22338201585                       # Total energy per rank (pJ)
system.mem_ctrls.rank1.averagePower        649.559154                       # Core power per rank (mW)
system.mem_ctrls.rank1.totalIdleTime                0                       # Total Idle time Per DRAM Rank
system.mem_ctrls.rank1.memoryStateTime::IDLE   4300131500                       # Time in different power states
system.mem_ctrls.rank1.memoryStateTime::REF   1148160000                       # Time in different power states
system.mem_ctrls.rank1.memoryStateTime::SREF            0                       # Time in different power states
system.mem_ctrls.rank1.memoryStateTime::PRE_PDN            0                       # Time in different power states
system.mem_ctrls.rank1.memoryStateTime::ACT  28941496500                       # Time in different power states
system.mem_ctrls.rank1.memoryStateTime::ACT_PDN            0                       # Time in different power states
system.mem_ctrls.rank0.actEnergy            375378360                       # Energy for activate commands per rank (pJ)
system.mem_ctrls.rank0.preEnergy            199510740                       # Energy for precharge commands per rank (pJ)
system.mem_ctrls.rank0.readEnergy          2084465880                       # Energy for read commands per rank (pJ)
system.mem_ctrls.rank0.writeEnergy         1434309840                       # Energy for write commands per rank (pJ)
system.mem_ctrls.rank0.refreshEnergy     2714250240.000000                       # Energy for refresh commands per rank (pJ)
system.mem_ctrls.rank0.actBackEnergy      12949246320                       # Energy for active background per rank (pJ)
system.mem_ctrls.rank0.preBackEnergy       2301050400                       # Energy for precharge background per rank (pJ)
system.mem_ctrls.rank0.actPowerDownEnergy            0                       # Energy for active power-down per rank (pJ)
system.mem_ctrls.rank0.prePowerDownEnergy            0                       # Energy for precharge power-down per rank (pJ)
system.mem_ctrls.rank0.selfRefreshEnergy            0                       # Energy for self refresh per rank (pJ)
system.mem_ctrls.rank0.totalEnergy        22058211780                       # Total energy per rank (pJ)
system.mem_ctrls.rank0.averagePower        641.417498                       # Core power per rank (mW)
system.mem_ctrls.rank0.totalIdleTime                0                       # Total Idle time Per DRAM Rank
system.mem_ctrls.rank0.memoryStateTime::IDLE   5810783500                       # Time in different power states
system.mem_ctrls.rank0.memoryStateTime::REF   1148160000                       # Time in different power states
system.mem_ctrls.rank0.memoryStateTime::SREF            0                       # Time in different power states
system.mem_ctrls.rank0.memoryStateTime::PRE_PDN            0                       # Time in different power states
system.mem_ctrls.rank0.memoryStateTime::ACT  27430844500                       # Time in different power states
system.mem_ctrls.rank0.memoryStateTime::ACT_PDN            0                       # Time in different power states
system.mem_ctrls.power_state.pwrStateResidencyTicks::UNDEFINED  34389788000                       # Cumulative time (in ticks) in various power states
system.cpu_clk_domain.clock                       500                       # Clock period in ticks
system.tol2bus.trans_dist::ReadResp           1448146                       # Transaction distribution
system.tol2bus.trans_dist::WritebackDirty      1279358                       # Transaction distribution
system.tol2bus.trans_dist::WritebackClean      1153389                       # Transaction distribution
system.tol2bus.trans_dist::CleanEvict          241986                       # Transaction distribution
system.tol2bus.trans_dist::ReadExReq           635149                       # Transaction distribution
system.tol2bus.trans_dist::ReadExResp          635148                       # Transaction distribution
system.tol2bus.trans_dist::ReadCleanReq       1153422                       # Transaction distribution
system.tol2bus.trans_dist::ReadSharedReq       294725                       # Transaction distribution
system.tol2bus.pkt_count_system.cpu0.icache.mem_side::system.l2.cpu_side      3426993                       # Packet count per connected master and slave (bytes)
system.tol2bus.pkt_count_system.cpu0.dcache.mem_side::system.l2.cpu_side      1160393                       # Packet count per connected master and slave (bytes)
system.tol2bus.pkt_count_system.cpu1.icache.mem_side::system.l2.cpu_side        33239                       # Packet count per connected master and slave (bytes)
system.tol2bus.pkt_count_system.cpu1.dcache.mem_side::system.l2.cpu_side      1629195                       # Packet count per connected master and slave (bytes)
system.tol2bus.pkt_count::total               6249820                       # Packet count per connected master and slave (bytes)
system.tol2bus.pkt_size_system.cpu0.icache.mem_side::system.l2.cpu_side    146217984                       # Cumulative packet size per connected master and slave (bytes)
system.tol2bus.pkt_size_system.cpu0.dcache.mem_side::system.l2.cpu_side     37009920                       # Cumulative packet size per connected master and slave (bytes)
system.tol2bus.pkt_size_system.cpu1.icache.mem_side::system.l2.cpu_side      1417856                       # Cumulative packet size per connected master and slave (bytes)
system.tol2bus.pkt_size_system.cpu1.dcache.mem_side::system.l2.cpu_side     69027072                       # Cumulative packet size per connected master and slave (bytes)
system.tol2bus.pkt_size::total              253672832                       # Cumulative packet size per connected master and slave (bytes)
system.tol2bus.snoops                          591503                       # Total snoops (count)
system.tol2bus.snoopTraffic                  35353792                       # Total snoop traffic (bytes)
system.tol2bus.snoop_fanout::samples          2674799                       # Request fanout histogram
system.tol2bus.snoop_fanout::mean            0.000127                       # Request fanout histogram
system.tol2bus.snoop_fanout::stdev           0.011290                       # Request fanout histogram
system.tol2bus.snoop_fanout::underflows             0      0.00%      0.00% # Request fanout histogram
system.tol2bus.snoop_fanout::0                2674458     99.99%     99.99% # Request fanout histogram
system.tol2bus.snoop_fanout::1                    341      0.01%    100.00% # Request fanout histogram
system.tol2bus.snoop_fanout::2                      0      0.00%    100.00% # Request fanout histogram
system.tol2bus.snoop_fanout::3                      0      0.00%    100.00% # Request fanout histogram
system.tol2bus.snoop_fanout::4                      0      0.00%    100.00% # Request fanout histogram
system.tol2bus.snoop_fanout::5                      0      0.00%    100.00% # Request fanout histogram
system.tol2bus.snoop_fanout::6                      0      0.00%    100.00% # Request fanout histogram
system.tol2bus.snoop_fanout::7                      0      0.00%    100.00% # Request fanout histogram
system.tol2bus.snoop_fanout::8                      0      0.00%    100.00% # Request fanout histogram
system.tol2bus.snoop_fanout::overflows              0      0.00%    100.00% # Request fanout histogram
system.tol2bus.snoop_fanout::min_value              0                       # Request fanout histogram
system.tol2bus.snoop_fanout::max_value              1                       # Request fanout histogram
system.tol2bus.snoop_fanout::total            2674799                       # Request fanout histogram
system.tol2bus.reqLayer0.occupancy         3963607000                       # Layer occupancy (ticks)
system.tol2bus.reqLayer0.utilization             11.5                       # Layer utilization (%)
system.tol2bus.respLayer5.occupancy         820835514                       # Layer occupancy (ticks)
system.tol2bus.respLayer5.utilization             2.4                       # Layer utilization (%)
system.tol2bus.respLayer4.occupancy          16658937                       # Layer occupancy (ticks)
system.tol2bus.respLayer4.utilization             0.0                       # Layer utilization (%)
system.tol2bus.respLayer1.occupancy         580237434                       # Layer occupancy (ticks)
system.tol2bus.respLayer1.utilization             1.7                       # Layer utilization (%)
system.tol2bus.respLayer0.occupancy        1713521465                       # Layer occupancy (ticks)
system.tol2bus.respLayer0.utilization             5.0                       # Layer utilization (%)
system.tol2bus.power_state.pwrStateResidencyTicks::UNDEFINED  34389788000                       # Cumulative time (in ticks) in various power states

---------- End Simulation Statistics   ----------
