
---------- Begin Simulation Statistics ----------
final_tick                                59175534500                       # Number of ticks from beginning of simulation (restored from checkpoints and never reset)
host_inst_rate                                 202985                       # Simulator instruction rate (inst/s)
host_mem_usage                                4434624                       # Number of bytes of host memory used
host_op_rate                                   324313                       # Simulator op (including micro ops) rate (op/s)
host_seconds                                    74.16                       # Real time elapsed on the host
host_tick_rate                              797932474                       # Simulator tick rate (ticks/s)
sim_freq                                 1000000000000                       # Frequency of simulated ticks
sim_insts                                    15053603                       # Number of instructions simulated
sim_ops                                      24051364                       # Number of ops (including micro ops) simulated
sim_seconds                                  0.059176                       # Number of seconds simulated
sim_ticks                                 59175534500                       # Number of ticks simulated
system.cpu0.branchPred.BTBCorrect                   0                       # Number of correct BTB predictions (this stat may not work properly.
system.cpu0.branchPred.BTBHitPct                  nan                       # BTB Hit Percentage
system.cpu0.branchPred.BTBHits                      0                       # Number of BTB hits
system.cpu0.branchPred.BTBLookups                   0                       # Number of BTB lookups
system.cpu0.branchPred.RASInCorrect                 0                       # Number of incorrect RAS predictions.
system.cpu0.branchPred.condIncorrect               40                       # Number of conditional branches incorrect
system.cpu0.branchPred.condPredicted               83                       # Number of conditional branches predicted
system.cpu0.branchPred.indirectHits                 0                       # Number of indirect target hits.
system.cpu0.branchPred.indirectLookups             25                       # Number of indirect predictor lookups.
system.cpu0.branchPred.indirectMisses              25                       # Number of indirect misses.
system.cpu0.branchPred.lookups                     83                       # Number of BP lookups
system.cpu0.branchPred.usedRAS                      0                       # Number of times the RAS was used to get a target.
system.cpu0.branchPredindirectMispredicted           13                       # Number of mispredicted indirect branches.
system.cpu0.committedInsts                   10000001                       # Number of instructions committed
system.cpu0.committedOps                     14509368                       # Number of ops (including micro ops) committed
system.cpu0.cpi                             11.835106                       # CPI: cycles per instruction
system.cpu0.discardedOps                      1920431                       # Number of ops (including micro ops) which were discarded before commit
system.cpu0.dtb.rdAccesses                    1871001                       # TLB accesses on read requests
system.cpu0.dtb.rdMisses                       365554                       # TLB misses on read requests
system.cpu0.dtb.wrAccesses                    7295811                       # TLB accesses on write requests
system.cpu0.dtb.wrMisses                        28449                       # TLB misses on write requests
system.cpu0.fetch2.amo_instructions                 0                       # Number of memory atomic instructions successfully decoded
system.cpu0.fetch2.fp_instructions                  0                       # Number of floating point instructions successfully decoded
system.cpu0.fetch2.int_instructions                 8                       # Number of integer instructions successfully decoded
system.cpu0.fetch2.load_instructions                0                       # Number of memory load instructions successfully decoded
system.cpu0.fetch2.store_instructions               0                       # Number of memory store instructions successfully decoded
system.cpu0.fetch2.vec_instructions                 0                       # Number of SIMD instructions successfully decoded
system.cpu0.idleCycles                       98378932                       # Total number of cycles that the object has spent stopped
system.cpu0.ipc                              0.084494                       # IPC: instructions per cycle
system.cpu0.itb.rdAccesses                          0                       # TLB accesses on read requests
system.cpu0.itb.rdMisses                            0                       # TLB misses on read requests
system.cpu0.itb.wrAccesses                    2313330                       # TLB accesses on write requests
system.cpu0.itb.wrMisses                          250                       # TLB misses on write requests
system.cpu0.numCycles                       118351069                       # number of cpu cycles simulated
system.cpu0.numFetchSuspends                        0                       # Number of times Execute suspended instruction fetching
system.cpu0.numWorkItemsCompleted                   0                       # number of work items this cpu completed
system.cpu0.numWorkItemsStarted                     0                       # number of work items this cpu started
system.cpu0.op_class_0::No_OpClass               1997      0.01%      0.01% # Class of committed instruction
system.cpu0.op_class_0::IntAlu                4979363     34.32%     34.33% # Class of committed instruction
system.cpu0.op_class_0::IntMult                    36      0.00%     34.33% # Class of committed instruction
system.cpu0.op_class_0::IntDiv                   1447      0.01%     34.34% # Class of committed instruction
system.cpu0.op_class_0::FloatAdd              1090392      7.52%     41.86% # Class of committed instruction
system.cpu0.op_class_0::FloatCmp                    0      0.00%     41.86% # Class of committed instruction
system.cpu0.op_class_0::FloatCvt                  112      0.00%     41.86% # Class of committed instruction
system.cpu0.op_class_0::FloatMult                   0      0.00%     41.86% # Class of committed instruction
system.cpu0.op_class_0::FloatMultAcc                0      0.00%     41.86% # Class of committed instruction
system.cpu0.op_class_0::FloatDiv                    0      0.00%     41.86% # Class of committed instruction
system.cpu0.op_class_0::FloatMisc                   0      0.00%     41.86% # Class of committed instruction
system.cpu0.op_class_0::FloatSqrt                   0      0.00%     41.86% # Class of committed instruction
system.cpu0.op_class_0::SimdAdd                  1140      0.01%     41.87% # Class of committed instruction
system.cpu0.op_class_0::SimdAddAcc                  0      0.00%     41.87% # Class of committed instruction
system.cpu0.op_class_0::SimdAlu                  1367      0.01%     41.88% # Class of committed instruction
system.cpu0.op_class_0::SimdCmp                    12      0.00%     41.88% # Class of committed instruction
system.cpu0.op_class_0::SimdCvt                  1866      0.01%     41.89% # Class of committed instruction
system.cpu0.op_class_0::SimdMisc                 1287      0.01%     41.90% # Class of committed instruction
system.cpu0.op_class_0::SimdMult                    0      0.00%     41.90% # Class of committed instruction
system.cpu0.op_class_0::SimdMultAcc                 0      0.00%     41.90% # Class of committed instruction
system.cpu0.op_class_0::SimdShift                 426      0.00%     41.90% # Class of committed instruction
system.cpu0.op_class_0::SimdShiftAcc                0      0.00%     41.90% # Class of committed instruction
system.cpu0.op_class_0::SimdDiv                     0      0.00%     41.90% # Class of committed instruction
system.cpu0.op_class_0::SimdSqrt                    0      0.00%     41.90% # Class of committed instruction
system.cpu0.op_class_0::SimdFloatAdd                0      0.00%     41.90% # Class of committed instruction
system.cpu0.op_class_0::SimdFloatAlu                0      0.00%     41.90% # Class of committed instruction
system.cpu0.op_class_0::SimdFloatCmp                0      0.00%     41.90% # Class of committed instruction
system.cpu0.op_class_0::SimdFloatCvt                2      0.00%     41.90% # Class of committed instruction
system.cpu0.op_class_0::SimdFloatDiv                0      0.00%     41.90% # Class of committed instruction
system.cpu0.op_class_0::SimdFloatMisc               0      0.00%     41.90% # Class of committed instruction
system.cpu0.op_class_0::SimdFloatMult               0      0.00%     41.90% # Class of committed instruction
system.cpu0.op_class_0::SimdFloatMultAcc            0      0.00%     41.90% # Class of committed instruction
system.cpu0.op_class_0::SimdFloatSqrt               0      0.00%     41.90% # Class of committed instruction
system.cpu0.op_class_0::SimdReduceAdd               0      0.00%     41.90% # Class of committed instruction
system.cpu0.op_class_0::SimdReduceAlu               0      0.00%     41.90% # Class of committed instruction
system.cpu0.op_class_0::SimdReduceCmp               0      0.00%     41.90% # Class of committed instruction
system.cpu0.op_class_0::SimdFloatReduceAdd            0      0.00%     41.90% # Class of committed instruction
system.cpu0.op_class_0::SimdFloatReduceCmp            0      0.00%     41.90% # Class of committed instruction
system.cpu0.op_class_0::SimdAes                     0      0.00%     41.90% # Class of committed instruction
system.cpu0.op_class_0::SimdAesMix                  0      0.00%     41.90% # Class of committed instruction
system.cpu0.op_class_0::SimdSha1Hash                0      0.00%     41.90% # Class of committed instruction
system.cpu0.op_class_0::SimdSha1Hash2               0      0.00%     41.90% # Class of committed instruction
system.cpu0.op_class_0::SimdSha256Hash              0      0.00%     41.90% # Class of committed instruction
system.cpu0.op_class_0::SimdSha256Hash2             0      0.00%     41.90% # Class of committed instruction
system.cpu0.op_class_0::SimdShaSigma2               0      0.00%     41.90% # Class of committed instruction
system.cpu0.op_class_0::SimdShaSigma3               0      0.00%     41.90% # Class of committed instruction
system.cpu0.op_class_0::SimdPredAlu                 0      0.00%     41.90% # Class of committed instruction
system.cpu0.op_class_0::MemRead                 42409      0.29%     42.19% # Class of committed instruction
system.cpu0.op_class_0::MemWrite               389289      2.68%     44.88% # Class of committed instruction
system.cpu0.op_class_0::FloatMemRead          1092474      7.53%     52.40% # Class of committed instruction
system.cpu0.op_class_0::FloatMemWrite         6905749     47.60%    100.00% # Class of committed instruction
system.cpu0.op_class_0::IprAccess                   0      0.00%    100.00% # Class of committed instruction
system.cpu0.op_class_0::InstPrefetch                0      0.00%    100.00% # Class of committed instruction
system.cpu0.op_class_0::total                14509368                       # Class of committed instruction
system.cpu0.tickCycles                       19972137                       # Number of cycles that the object actually ticked
system.cpu0.workload.numSyscalls                   40                       # Number of system calls
system.cpu1.branchPred.BTBCorrect                   0                       # Number of correct BTB predictions (this stat may not work properly.
system.cpu1.branchPred.BTBHitPct                  nan                       # BTB Hit Percentage
system.cpu1.branchPred.BTBHits                      0                       # Number of BTB hits
system.cpu1.branchPred.BTBLookups                   0                       # Number of BTB lookups
system.cpu1.branchPred.RASInCorrect                 0                       # Number of incorrect RAS predictions.
system.cpu1.branchPred.condIncorrect               30                       # Number of conditional branches incorrect
system.cpu1.branchPred.condPredicted               68                       # Number of conditional branches predicted
system.cpu1.branchPred.indirectHits                 0                       # Number of indirect target hits.
system.cpu1.branchPred.indirectLookups             21                       # Number of indirect predictor lookups.
system.cpu1.branchPred.indirectMisses              21                       # Number of indirect misses.
system.cpu1.branchPred.lookups                     68                       # Number of BP lookups
system.cpu1.branchPred.usedRAS                      0                       # Number of times the RAS was used to get a target.
system.cpu1.branchPredindirectMispredicted           12                       # Number of mispredicted indirect branches.
system.cpu1.committedInsts                    5053602                       # Number of instructions committed
system.cpu1.committedOps                      9541996                       # Number of ops (including micro ops) committed
system.cpu1.cpi                             23.419130                       # CPI: cycles per instruction
system.cpu1.discardedOps                      3157005                       # Number of ops (including micro ops) which were discarded before commit
system.cpu1.dtb.rdAccesses                     796768                       # TLB accesses on read requests
system.cpu1.dtb.rdMisses                         2012                       # TLB misses on read requests
system.cpu1.dtb.wrAccesses                    4839813                       # TLB accesses on write requests
system.cpu1.dtb.wrMisses                        18460                       # TLB misses on write requests
system.cpu1.fetch2.amo_instructions                 0                       # Number of memory atomic instructions successfully decoded
system.cpu1.fetch2.fp_instructions                  0                       # Number of floating point instructions successfully decoded
system.cpu1.fetch2.int_instructions                 8                       # Number of integer instructions successfully decoded
system.cpu1.fetch2.load_instructions                0                       # Number of memory load instructions successfully decoded
system.cpu1.fetch2.store_instructions               0                       # Number of memory store instructions successfully decoded
system.cpu1.fetch2.vec_instructions                 0                       # Number of SIMD instructions successfully decoded
system.cpu1.idleCycles                      102415727                       # Total number of cycles that the object has spent stopped
system.cpu1.ipc                              0.042700                       # IPC: instructions per cycle
system.cpu1.itb.rdAccesses                          0                       # TLB accesses on read requests
system.cpu1.itb.rdMisses                            0                       # TLB misses on read requests
system.cpu1.itb.wrAccesses                    1996510                       # TLB accesses on write requests
system.cpu1.itb.wrMisses                          194                       # TLB misses on write requests
system.cpu1.numCycles                       118350961                       # number of cpu cycles simulated
system.cpu1.numFetchSuspends                        0                       # Number of times Execute suspended instruction fetching
system.cpu1.numWorkItemsCompleted                   0                       # number of work items this cpu completed
system.cpu1.numWorkItemsStarted                     0                       # number of work items this cpu started
system.cpu1.op_class_0::No_OpClass               2098      0.02%      0.02% # Class of committed instruction
system.cpu1.op_class_0::IntAlu                4494842     47.11%     47.13% # Class of committed instruction
system.cpu1.op_class_0::IntMult                   641      0.01%     47.13% # Class of committed instruction
system.cpu1.op_class_0::IntDiv                   1317      0.01%     47.15% # Class of committed instruction
system.cpu1.op_class_0::FloatAdd                  189      0.00%     47.15% # Class of committed instruction
system.cpu1.op_class_0::FloatCmp                    0      0.00%     47.15% # Class of committed instruction
system.cpu1.op_class_0::FloatCvt                   96      0.00%     47.15% # Class of committed instruction
system.cpu1.op_class_0::FloatMult                   0      0.00%     47.15% # Class of committed instruction
system.cpu1.op_class_0::FloatMultAcc                0      0.00%     47.15% # Class of committed instruction
system.cpu1.op_class_0::FloatDiv                    0      0.00%     47.15% # Class of committed instruction
system.cpu1.op_class_0::FloatMisc                   0      0.00%     47.15% # Class of committed instruction
system.cpu1.op_class_0::FloatSqrt                   0      0.00%     47.15% # Class of committed instruction
system.cpu1.op_class_0::SimdAdd                   916      0.01%     47.16% # Class of committed instruction
system.cpu1.op_class_0::SimdAddAcc                  0      0.00%     47.16% # Class of committed instruction
system.cpu1.op_class_0::SimdAlu                   943      0.01%     47.17% # Class of committed instruction
system.cpu1.op_class_0::SimdCmp                     0      0.00%     47.17% # Class of committed instruction
system.cpu1.op_class_0::SimdCvt                  1230      0.01%     47.18% # Class of committed instruction
system.cpu1.op_class_0::SimdMisc                  843      0.01%     47.19% # Class of committed instruction
system.cpu1.op_class_0::SimdMult                    0      0.00%     47.19% # Class of committed instruction
system.cpu1.op_class_0::SimdMultAcc                 0      0.00%     47.19% # Class of committed instruction
system.cpu1.op_class_0::SimdShift                 388      0.00%     47.20% # Class of committed instruction
system.cpu1.op_class_0::SimdShiftAcc                0      0.00%     47.20% # Class of committed instruction
system.cpu1.op_class_0::SimdDiv                     0      0.00%     47.20% # Class of committed instruction
system.cpu1.op_class_0::SimdSqrt                    0      0.00%     47.20% # Class of committed instruction
system.cpu1.op_class_0::SimdFloatAdd                0      0.00%     47.20% # Class of committed instruction
system.cpu1.op_class_0::SimdFloatAlu                0      0.00%     47.20% # Class of committed instruction
system.cpu1.op_class_0::SimdFloatCmp                0      0.00%     47.20% # Class of committed instruction
system.cpu1.op_class_0::SimdFloatCvt                0      0.00%     47.20% # Class of committed instruction
system.cpu1.op_class_0::SimdFloatDiv                0      0.00%     47.20% # Class of committed instruction
system.cpu1.op_class_0::SimdFloatMisc               0      0.00%     47.20% # Class of committed instruction
system.cpu1.op_class_0::SimdFloatMult               0      0.00%     47.20% # Class of committed instruction
system.cpu1.op_class_0::SimdFloatMultAcc            0      0.00%     47.20% # Class of committed instruction
system.cpu1.op_class_0::SimdFloatSqrt               0      0.00%     47.20% # Class of committed instruction
system.cpu1.op_class_0::SimdReduceAdd               0      0.00%     47.20% # Class of committed instruction
system.cpu1.op_class_0::SimdReduceAlu               0      0.00%     47.20% # Class of committed instruction
system.cpu1.op_class_0::SimdReduceCmp               0      0.00%     47.20% # Class of committed instruction
system.cpu1.op_class_0::SimdFloatReduceAdd            0      0.00%     47.20% # Class of committed instruction
system.cpu1.op_class_0::SimdFloatReduceCmp            0      0.00%     47.20% # Class of committed instruction
system.cpu1.op_class_0::SimdAes                     0      0.00%     47.20% # Class of committed instruction
system.cpu1.op_class_0::SimdAesMix                  0      0.00%     47.20% # Class of committed instruction
system.cpu1.op_class_0::SimdSha1Hash                0      0.00%     47.20% # Class of committed instruction
system.cpu1.op_class_0::SimdSha1Hash2               0      0.00%     47.20% # Class of committed instruction
system.cpu1.op_class_0::SimdSha256Hash              0      0.00%     47.20% # Class of committed instruction
system.cpu1.op_class_0::SimdSha256Hash2             0      0.00%     47.20% # Class of committed instruction
system.cpu1.op_class_0::SimdShaSigma2               0      0.00%     47.20% # Class of committed instruction
system.cpu1.op_class_0::SimdShaSigma3               0      0.00%     47.20% # Class of committed instruction
system.cpu1.op_class_0::SimdPredAlu                 0      0.00%     47.20% # Class of committed instruction
system.cpu1.op_class_0::MemRead                199681      2.09%     49.29% # Class of committed instruction
system.cpu1.op_class_0::MemWrite               133412      1.40%     50.69% # Class of committed instruction
system.cpu1.op_class_0::FloatMemRead             1610      0.02%     50.70% # Class of committed instruction
system.cpu1.op_class_0::FloatMemWrite         4703790     49.30%    100.00% # Class of committed instruction
system.cpu1.op_class_0::IprAccess                   0      0.00%    100.00% # Class of committed instruction
system.cpu1.op_class_0::InstPrefetch                0      0.00%    100.00% # Class of committed instruction
system.cpu1.op_class_0::total                 9541996                       # Class of committed instruction
system.cpu1.tickCycles                       15935234                       # Number of cycles that the object actually ticked
system.cpu1.workload.numSyscalls                   30                       # Number of system calls
system.membus.snoop_filter.hit_multi_requests            0                       # Number of requests hitting in the snoop filter with multiple (>1) holders of the requested data.
system.membus.snoop_filter.hit_multi_snoops            0                       # Number of snoops hitting in the snoop filter with multiple (>1) holders of the requested data.
system.membus.snoop_filter.hit_single_requests      1508429                       # Number of requests hitting in the snoop filter with a single holder of the requested data.
system.membus.snoop_filter.hit_single_snoops            0                       # Number of snoops hitting in the snoop filter with a single holder of the requested data.
system.membus.snoop_filter.tot_requests       3017918                       # Total number of requests made to the snoop filter.
system.membus.snoop_filter.tot_snoops               0                       # Total number of snoops made to the snoop filter.
system.tol2bus.snoop_filter.hit_multi_requests            0                       # Number of requests hitting in the snoop filter with multiple (>1) holders of the requested data.
system.tol2bus.snoop_filter.hit_multi_snoops            0                       # Number of snoops hitting in the snoop filter with multiple (>1) holders of the requested data.
system.tol2bus.snoop_filter.hit_single_requests      1550712                       # Number of requests hitting in the snoop filter with a single holder of the requested data.
system.tol2bus.snoop_filter.hit_single_snoops          366                       # Number of snoops hitting in the snoop filter with a single holder of the requested data.
system.tol2bus.snoop_filter.tot_requests      3101490                       # Total number of requests made to the snoop filter.
system.tol2bus.snoop_filter.tot_snoops            366                       # Total number of snoops made to the snoop filter.
system.membus.trans_dist::ReadResp              10302                       # Transaction distribution
system.membus.trans_dist::WritebackDirty      1498403                       # Transaction distribution
system.membus.trans_dist::CleanEvict            10026                       # Transaction distribution
system.membus.trans_dist::ReadExReq           1499187                       # Transaction distribution
system.membus.trans_dist::ReadExResp          1499186                       # Transaction distribution
system.membus.trans_dist::ReadSharedReq         10302                       # Transaction distribution
system.membus.pkt_count_system.l2.mem_side::system.mem_ctrls.port      4527406                       # Packet count per connected master and slave (bytes)
system.membus.pkt_count_system.l2.mem_side::total      4527406                       # Packet count per connected master and slave (bytes)
system.membus.pkt_count::total                4527406                       # Packet count per connected master and slave (bytes)
system.membus.pkt_size_system.l2.mem_side::system.mem_ctrls.port    192505024                       # Cumulative packet size per connected master and slave (bytes)
system.membus.pkt_size_system.l2.mem_side::total    192505024                       # Cumulative packet size per connected master and slave (bytes)
system.membus.pkt_size::total               192505024                       # Cumulative packet size per connected master and slave (bytes)
system.membus.snoops                                0                       # Total snoops (count)
system.membus.snoopTraffic                          0                       # Total snoop traffic (bytes)
system.membus.snoop_fanout::samples           1509489                       # Request fanout histogram
system.membus.snoop_fanout::mean                    0                       # Request fanout histogram
system.membus.snoop_fanout::stdev                   0                       # Request fanout histogram
system.membus.snoop_fanout::underflows              0      0.00%      0.00% # Request fanout histogram
system.membus.snoop_fanout::0                 1509489    100.00%    100.00% # Request fanout histogram
system.membus.snoop_fanout::1                       0      0.00%    100.00% # Request fanout histogram
system.membus.snoop_fanout::overflows               0      0.00%    100.00% # Request fanout histogram
system.membus.snoop_fanout::min_value               0                       # Request fanout histogram
system.membus.snoop_fanout::max_value               0                       # Request fanout histogram
system.membus.snoop_fanout::total             1509489                       # Request fanout histogram
system.membus.reqLayer4.occupancy          9587903500                       # Layer occupancy (ticks)
system.membus.reqLayer4.utilization              16.2                       # Layer utilization (%)
system.membus.respLayer1.occupancy         7887316250                       # Layer occupancy (ticks)
system.membus.respLayer1.utilization             13.3                       # Layer utilization (%)
system.membus.power_state.pwrStateResidencyTicks::UNDEFINED  59175534500                       # Cumulative time (in ticks) in various power states
system.voltage_domain.voltage                       1                       # Voltage in Volts
system.clk_domain.clock                          1000                       # Clock period in ticks
system.cpu0.icache.demand_hits::.cpu0.inst      2302155                       # number of demand (read+write) hits
system.cpu0.icache.demand_hits::total         2302155                       # number of demand (read+write) hits
system.cpu0.icache.overall_hits::.cpu0.inst      2302155                       # number of overall hits
system.cpu0.icache.overall_hits::total        2302155                       # number of overall hits
system.cpu0.icache.demand_misses::.cpu0.inst        11108                       # number of demand (read+write) misses
system.cpu0.icache.demand_misses::total         11108                       # number of demand (read+write) misses
system.cpu0.icache.overall_misses::.cpu0.inst        11108                       # number of overall misses
system.cpu0.icache.overall_misses::total        11108                       # number of overall misses
system.cpu0.icache.demand_miss_latency::.cpu0.inst    331524500                       # number of demand (read+write) miss cycles
system.cpu0.icache.demand_miss_latency::total    331524500                       # number of demand (read+write) miss cycles
system.cpu0.icache.overall_miss_latency::.cpu0.inst    331524500                       # number of overall miss cycles
system.cpu0.icache.overall_miss_latency::total    331524500                       # number of overall miss cycles
system.cpu0.icache.demand_accesses::.cpu0.inst      2313263                       # number of demand (read+write) accesses
system.cpu0.icache.demand_accesses::total      2313263                       # number of demand (read+write) accesses
system.cpu0.icache.overall_accesses::.cpu0.inst      2313263                       # number of overall (read+write) accesses
system.cpu0.icache.overall_accesses::total      2313263                       # number of overall (read+write) accesses
system.cpu0.icache.demand_miss_rate::.cpu0.inst     0.004802                       # miss rate for demand accesses
system.cpu0.icache.demand_miss_rate::total     0.004802                       # miss rate for demand accesses
system.cpu0.icache.overall_miss_rate::.cpu0.inst     0.004802                       # miss rate for overall accesses
system.cpu0.icache.overall_miss_rate::total     0.004802                       # miss rate for overall accesses
system.cpu0.icache.demand_avg_miss_latency::.cpu0.inst 29845.561757                       # average overall miss latency
system.cpu0.icache.demand_avg_miss_latency::total 29845.561757                       # average overall miss latency
system.cpu0.icache.overall_avg_miss_latency::.cpu0.inst 29845.561757                       # average overall miss latency
system.cpu0.icache.overall_avg_miss_latency::total 29845.561757                       # average overall miss latency
system.cpu0.icache.blocked_cycles::no_mshrs            0                       # number of cycles access was blocked
system.cpu0.icache.blocked_cycles::no_targets            0                       # number of cycles access was blocked
system.cpu0.icache.blocked::no_mshrs                0                       # number of cycles access was blocked
system.cpu0.icache.blocked::no_targets              0                       # number of cycles access was blocked
system.cpu0.icache.avg_blocked_cycles::no_mshrs          nan                       # average number of cycles each access was blocked
system.cpu0.icache.avg_blocked_cycles::no_targets          nan                       # average number of cycles each access was blocked
system.cpu0.icache.writebacks::.writebacks        11092                       # number of writebacks
system.cpu0.icache.writebacks::total            11092                       # number of writebacks
system.cpu0.icache.demand_mshr_misses::.cpu0.inst        11108                       # number of demand (read+write) MSHR misses
system.cpu0.icache.demand_mshr_misses::total        11108                       # number of demand (read+write) MSHR misses
system.cpu0.icache.overall_mshr_misses::.cpu0.inst        11108                       # number of overall MSHR misses
system.cpu0.icache.overall_mshr_misses::total        11108                       # number of overall MSHR misses
system.cpu0.icache.demand_mshr_miss_latency::.cpu0.inst    320416500                       # number of demand (read+write) MSHR miss cycles
system.cpu0.icache.demand_mshr_miss_latency::total    320416500                       # number of demand (read+write) MSHR miss cycles
system.cpu0.icache.overall_mshr_miss_latency::.cpu0.inst    320416500                       # number of overall MSHR miss cycles
system.cpu0.icache.overall_mshr_miss_latency::total    320416500                       # number of overall MSHR miss cycles
system.cpu0.icache.demand_mshr_miss_rate::.cpu0.inst     0.004802                       # mshr miss rate for demand accesses
system.cpu0.icache.demand_mshr_miss_rate::total     0.004802                       # mshr miss rate for demand accesses
system.cpu0.icache.overall_mshr_miss_rate::.cpu0.inst     0.004802                       # mshr miss rate for overall accesses
system.cpu0.icache.overall_mshr_miss_rate::total     0.004802                       # mshr miss rate for overall accesses
system.cpu0.icache.demand_avg_mshr_miss_latency::.cpu0.inst 28845.561757                       # average overall mshr miss latency
system.cpu0.icache.demand_avg_mshr_miss_latency::total 28845.561757                       # average overall mshr miss latency
system.cpu0.icache.overall_avg_mshr_miss_latency::.cpu0.inst 28845.561757                       # average overall mshr miss latency
system.cpu0.icache.overall_avg_mshr_miss_latency::total 28845.561757                       # average overall mshr miss latency
system.cpu0.icache.replacements                 11092                       # number of replacements
system.cpu0.icache.ReadReq_hits::.cpu0.inst      2302155                       # number of ReadReq hits
system.cpu0.icache.ReadReq_hits::total        2302155                       # number of ReadReq hits
system.cpu0.icache.ReadReq_misses::.cpu0.inst        11108                       # number of ReadReq misses
system.cpu0.icache.ReadReq_misses::total        11108                       # number of ReadReq misses
system.cpu0.icache.ReadReq_miss_latency::.cpu0.inst    331524500                       # number of ReadReq miss cycles
system.cpu0.icache.ReadReq_miss_latency::total    331524500                       # number of ReadReq miss cycles
system.cpu0.icache.ReadReq_accesses::.cpu0.inst      2313263                       # number of ReadReq accesses(hits+misses)
system.cpu0.icache.ReadReq_accesses::total      2313263                       # number of ReadReq accesses(hits+misses)
system.cpu0.icache.ReadReq_miss_rate::.cpu0.inst     0.004802                       # miss rate for ReadReq accesses
system.cpu0.icache.ReadReq_miss_rate::total     0.004802                       # miss rate for ReadReq accesses
system.cpu0.icache.ReadReq_avg_miss_latency::.cpu0.inst 29845.561757                       # average ReadReq miss latency
system.cpu0.icache.ReadReq_avg_miss_latency::total 29845.561757                       # average ReadReq miss latency
system.cpu0.icache.ReadReq_mshr_misses::.cpu0.inst        11108                       # number of ReadReq MSHR misses
system.cpu0.icache.ReadReq_mshr_misses::total        11108                       # number of ReadReq MSHR misses
system.cpu0.icache.ReadReq_mshr_miss_latency::.cpu0.inst    320416500                       # number of ReadReq MSHR miss cycles
system.cpu0.icache.ReadReq_mshr_miss_latency::total    320416500                       # number of ReadReq MSHR miss cycles
system.cpu0.icache.ReadReq_mshr_miss_rate::.cpu0.inst     0.004802                       # mshr miss rate for ReadReq accesses
system.cpu0.icache.ReadReq_mshr_miss_rate::total     0.004802                       # mshr miss rate for ReadReq accesses
system.cpu0.icache.ReadReq_avg_mshr_miss_latency::.cpu0.inst 28845.561757                       # average ReadReq mshr miss latency
system.cpu0.icache.ReadReq_avg_mshr_miss_latency::total 28845.561757                       # average ReadReq mshr miss latency
system.cpu0.icache.power_state.pwrStateResidencyTicks::UNDEFINED  59175534500                       # Cumulative time (in ticks) in various power states
system.cpu0.icache.tags.tagsinuse           15.999766                       # Cycle average of tags in use
system.cpu0.icache.tags.total_refs            2313263                       # Total number of references to valid blocks.
system.cpu0.icache.tags.sampled_refs            11108                       # Sample count of references to valid blocks.
system.cpu0.icache.tags.avg_refs           208.251981                       # Average number of references to valid blocks.
system.cpu0.icache.tags.warmup_cycle            87500                       # Cycle when the warmup percentage was hit.
system.cpu0.icache.tags.occ_blocks::.cpu0.inst    15.999766                       # Average occupied blocks per requestor
system.cpu0.icache.tags.occ_percent::.cpu0.inst     0.999985                       # Average percentage of cache occupancy
system.cpu0.icache.tags.occ_percent::total     0.999985                       # Average percentage of cache occupancy
system.cpu0.icache.tags.occ_task_id_blocks::1024           16                       # Occupied blocks per task id
system.cpu0.icache.tags.age_task_id_blocks_1024::4           16                       # Occupied blocks per task id
system.cpu0.icache.tags.occ_task_id_percent::1024            1                       # Percentage of cache occupancy per task id
system.cpu0.icache.tags.tag_accesses         18517212                       # Number of tag accesses
system.cpu0.icache.tags.data_accesses        18517212                       # Number of data accesses
system.cpu0.icache.tags.power_state.pwrStateResidencyTicks::UNDEFINED  59175534500                       # Cumulative time (in ticks) in various power states
system.cpu0.dtb.walker.power_state.pwrStateResidencyTicks::UNDEFINED  59175534500                       # Cumulative time (in ticks) in various power states
system.cpu0.interrupts.clk_domain.clock          8000                       # Clock period in ticks
system.cpu0.itb_walker_cache.blocked_cycles::no_mshrs            0                       # number of cycles access was blocked
system.cpu0.itb_walker_cache.blocked_cycles::no_targets            0                       # number of cycles access was blocked
system.cpu0.itb_walker_cache.blocked::no_mshrs            0                       # number of cycles access was blocked
system.cpu0.itb_walker_cache.blocked::no_targets            0                       # number of cycles access was blocked
system.cpu0.itb_walker_cache.avg_blocked_cycles::no_mshrs          nan                       # average number of cycles each access was blocked
system.cpu0.itb_walker_cache.avg_blocked_cycles::no_targets          nan                       # average number of cycles each access was blocked
system.cpu0.itb_walker_cache.replacements            0                       # number of replacements
system.cpu0.itb_walker_cache.power_state.pwrStateResidencyTicks::UNDEFINED  59175534500                       # Cumulative time (in ticks) in various power states
system.cpu0.itb_walker_cache.tags.tagsinuse            0                       # Cycle average of tags in use
system.cpu0.itb_walker_cache.tags.total_refs            0                       # Total number of references to valid blocks.
system.cpu0.itb_walker_cache.tags.sampled_refs            0                       # Sample count of references to valid blocks.
system.cpu0.itb_walker_cache.tags.avg_refs          nan                       # Average number of references to valid blocks.
system.cpu0.itb_walker_cache.tags.warmup_cycle            0                       # Cycle when the warmup percentage was hit.
system.cpu0.itb_walker_cache.tags.tag_accesses            0                       # Number of tag accesses
system.cpu0.itb_walker_cache.tags.data_accesses            0                       # Number of data accesses
system.cpu0.itb_walker_cache.tags.power_state.pwrStateResidencyTicks::UNDEFINED  59175534500                       # Cumulative time (in ticks) in various power states
system.cpu0.dtb_walker_cache.blocked_cycles::no_mshrs            0                       # number of cycles access was blocked
system.cpu0.dtb_walker_cache.blocked_cycles::no_targets            0                       # number of cycles access was blocked
system.cpu0.dtb_walker_cache.blocked::no_mshrs            0                       # number of cycles access was blocked
system.cpu0.dtb_walker_cache.blocked::no_targets            0                       # number of cycles access was blocked
system.cpu0.dtb_walker_cache.avg_blocked_cycles::no_mshrs          nan                       # average number of cycles each access was blocked
system.cpu0.dtb_walker_cache.avg_blocked_cycles::no_targets          nan                       # average number of cycles each access was blocked
system.cpu0.dtb_walker_cache.replacements            0                       # number of replacements
system.cpu0.dtb_walker_cache.power_state.pwrStateResidencyTicks::UNDEFINED  59175534500                       # Cumulative time (in ticks) in various power states
system.cpu0.dtb_walker_cache.tags.tagsinuse            0                       # Cycle average of tags in use
system.cpu0.dtb_walker_cache.tags.total_refs            0                       # Total number of references to valid blocks.
system.cpu0.dtb_walker_cache.tags.sampled_refs            0                       # Sample count of references to valid blocks.
system.cpu0.dtb_walker_cache.tags.avg_refs          nan                       # Average number of references to valid blocks.
system.cpu0.dtb_walker_cache.tags.warmup_cycle            0                       # Cycle when the warmup percentage was hit.
system.cpu0.dtb_walker_cache.tags.tag_accesses            0                       # Number of tag accesses
system.cpu0.dtb_walker_cache.tags.data_accesses            0                       # Number of data accesses
system.cpu0.dtb_walker_cache.tags.power_state.pwrStateResidencyTicks::UNDEFINED  59175534500                       # Cumulative time (in ticks) in various power states
system.cpu0.dcache.demand_hits::.cpu0.data      7320260                       # number of demand (read+write) hits
system.cpu0.dcache.demand_hits::total         7320260                       # number of demand (read+write) hits
system.cpu0.dcache.overall_hits::.cpu0.data      7320260                       # number of overall hits
system.cpu0.dcache.overall_hits::total        7320260                       # number of overall hits
system.cpu0.dcache.demand_misses::.cpu0.data      1465586                       # number of demand (read+write) misses
system.cpu0.dcache.demand_misses::total       1465586                       # number of demand (read+write) misses
system.cpu0.dcache.overall_misses::.cpu0.data      1465586                       # number of overall misses
system.cpu0.dcache.overall_misses::total      1465586                       # number of overall misses
system.cpu0.dcache.demand_miss_latency::.cpu0.data 101908801500                       # number of demand (read+write) miss cycles
system.cpu0.dcache.demand_miss_latency::total 101908801500                       # number of demand (read+write) miss cycles
system.cpu0.dcache.overall_miss_latency::.cpu0.data 101908801500                       # number of overall miss cycles
system.cpu0.dcache.overall_miss_latency::total 101908801500                       # number of overall miss cycles
system.cpu0.dcache.demand_accesses::.cpu0.data      8785846                       # number of demand (read+write) accesses
system.cpu0.dcache.demand_accesses::total      8785846                       # number of demand (read+write) accesses
system.cpu0.dcache.overall_accesses::.cpu0.data      8785846                       # number of overall (read+write) accesses
system.cpu0.dcache.overall_accesses::total      8785846                       # number of overall (read+write) accesses
system.cpu0.dcache.demand_miss_rate::.cpu0.data     0.166812                       # miss rate for demand accesses
system.cpu0.dcache.demand_miss_rate::total     0.166812                       # miss rate for demand accesses
system.cpu0.dcache.overall_miss_rate::.cpu0.data     0.166812                       # miss rate for overall accesses
system.cpu0.dcache.overall_miss_rate::total     0.166812                       # miss rate for overall accesses
system.cpu0.dcache.demand_avg_miss_latency::.cpu0.data 69534.508040                       # average overall miss latency
system.cpu0.dcache.demand_avg_miss_latency::total 69534.508040                       # average overall miss latency
system.cpu0.dcache.overall_avg_miss_latency::.cpu0.data 69534.508040                       # average overall miss latency
system.cpu0.dcache.overall_avg_miss_latency::total 69534.508040                       # average overall miss latency
system.cpu0.dcache.blocked_cycles::no_mshrs            0                       # number of cycles access was blocked
system.cpu0.dcache.blocked_cycles::no_targets            0                       # number of cycles access was blocked
system.cpu0.dcache.blocked::no_mshrs                0                       # number of cycles access was blocked
system.cpu0.dcache.blocked::no_targets              0                       # number of cycles access was blocked
system.cpu0.dcache.avg_blocked_cycles::no_mshrs          nan                       # average number of cycles each access was blocked
system.cpu0.dcache.avg_blocked_cycles::no_targets          nan                       # average number of cycles each access was blocked
system.cpu0.dcache.writebacks::.writebacks       912112                       # number of writebacks
system.cpu0.dcache.writebacks::total           912112                       # number of writebacks
system.cpu0.dcache.demand_mshr_hits::.cpu0.data       546003                       # number of demand (read+write) MSHR hits
system.cpu0.dcache.demand_mshr_hits::total       546003                       # number of demand (read+write) MSHR hits
system.cpu0.dcache.overall_mshr_hits::.cpu0.data       546003                       # number of overall MSHR hits
system.cpu0.dcache.overall_mshr_hits::total       546003                       # number of overall MSHR hits
system.cpu0.dcache.demand_mshr_misses::.cpu0.data       919583                       # number of demand (read+write) MSHR misses
system.cpu0.dcache.demand_mshr_misses::total       919583                       # number of demand (read+write) MSHR misses
system.cpu0.dcache.overall_mshr_misses::.cpu0.data       919583                       # number of overall MSHR misses
system.cpu0.dcache.overall_mshr_misses::total       919583                       # number of overall MSHR misses
system.cpu0.dcache.demand_mshr_miss_latency::.cpu0.data  81087470500                       # number of demand (read+write) MSHR miss cycles
system.cpu0.dcache.demand_mshr_miss_latency::total  81087470500                       # number of demand (read+write) MSHR miss cycles
system.cpu0.dcache.overall_mshr_miss_latency::.cpu0.data  81087470500                       # number of overall MSHR miss cycles
system.cpu0.dcache.overall_mshr_miss_latency::total  81087470500                       # number of overall MSHR miss cycles
system.cpu0.dcache.demand_mshr_miss_rate::.cpu0.data     0.104666                       # mshr miss rate for demand accesses
system.cpu0.dcache.demand_mshr_miss_rate::total     0.104666                       # mshr miss rate for demand accesses
system.cpu0.dcache.overall_mshr_miss_rate::.cpu0.data     0.104666                       # mshr miss rate for overall accesses
system.cpu0.dcache.overall_mshr_miss_rate::total     0.104666                       # mshr miss rate for overall accesses
system.cpu0.dcache.demand_avg_mshr_miss_latency::.cpu0.data 88178.522765                       # average overall mshr miss latency
system.cpu0.dcache.demand_avg_mshr_miss_latency::total 88178.522765                       # average overall mshr miss latency
system.cpu0.dcache.overall_avg_mshr_miss_latency::.cpu0.data 88178.522765                       # average overall mshr miss latency
system.cpu0.dcache.overall_avg_mshr_miss_latency::total 88178.522765                       # average overall mshr miss latency
system.cpu0.dcache.replacements                919566                       # number of replacements
system.cpu0.dcache.ReadReq_hits::.cpu0.data      1495636                       # number of ReadReq hits
system.cpu0.dcache.ReadReq_hits::total        1495636                       # number of ReadReq hits
system.cpu0.dcache.ReadReq_misses::.cpu0.data         9378                       # number of ReadReq misses
system.cpu0.dcache.ReadReq_misses::total         9378                       # number of ReadReq misses
system.cpu0.dcache.ReadReq_miss_latency::.cpu0.data    393544000                       # number of ReadReq miss cycles
system.cpu0.dcache.ReadReq_miss_latency::total    393544000                       # number of ReadReq miss cycles
system.cpu0.dcache.ReadReq_accesses::.cpu0.data      1505014                       # number of ReadReq accesses(hits+misses)
system.cpu0.dcache.ReadReq_accesses::total      1505014                       # number of ReadReq accesses(hits+misses)
system.cpu0.dcache.ReadReq_miss_rate::.cpu0.data     0.006231                       # miss rate for ReadReq accesses
system.cpu0.dcache.ReadReq_miss_rate::total     0.006231                       # miss rate for ReadReq accesses
system.cpu0.dcache.ReadReq_avg_miss_latency::.cpu0.data 41964.597995                       # average ReadReq miss latency
system.cpu0.dcache.ReadReq_avg_miss_latency::total 41964.597995                       # average ReadReq miss latency
system.cpu0.dcache.ReadReq_mshr_hits::.cpu0.data          335                       # number of ReadReq MSHR hits
system.cpu0.dcache.ReadReq_mshr_hits::total          335                       # number of ReadReq MSHR hits
system.cpu0.dcache.ReadReq_mshr_misses::.cpu0.data         9043                       # number of ReadReq MSHR misses
system.cpu0.dcache.ReadReq_mshr_misses::total         9043                       # number of ReadReq MSHR misses
system.cpu0.dcache.ReadReq_mshr_miss_latency::.cpu0.data    370180500                       # number of ReadReq MSHR miss cycles
system.cpu0.dcache.ReadReq_mshr_miss_latency::total    370180500                       # number of ReadReq MSHR miss cycles
system.cpu0.dcache.ReadReq_mshr_miss_rate::.cpu0.data     0.006009                       # mshr miss rate for ReadReq accesses
system.cpu0.dcache.ReadReq_mshr_miss_rate::total     0.006009                       # mshr miss rate for ReadReq accesses
system.cpu0.dcache.ReadReq_avg_mshr_miss_latency::.cpu0.data 40935.585536                       # average ReadReq mshr miss latency
system.cpu0.dcache.ReadReq_avg_mshr_miss_latency::total 40935.585536                       # average ReadReq mshr miss latency
system.cpu0.dcache.WriteReq_hits::.cpu0.data      5824624                       # number of WriteReq hits
system.cpu0.dcache.WriteReq_hits::total       5824624                       # number of WriteReq hits
system.cpu0.dcache.WriteReq_misses::.cpu0.data      1456208                       # number of WriteReq misses
system.cpu0.dcache.WriteReq_misses::total      1456208                       # number of WriteReq misses
system.cpu0.dcache.WriteReq_miss_latency::.cpu0.data 101515257500                       # number of WriteReq miss cycles
system.cpu0.dcache.WriteReq_miss_latency::total 101515257500                       # number of WriteReq miss cycles
system.cpu0.dcache.WriteReq_accesses::.cpu0.data      7280832                       # number of WriteReq accesses(hits+misses)
system.cpu0.dcache.WriteReq_accesses::total      7280832                       # number of WriteReq accesses(hits+misses)
system.cpu0.dcache.WriteReq_miss_rate::.cpu0.data     0.200006                       # miss rate for WriteReq accesses
system.cpu0.dcache.WriteReq_miss_rate::total     0.200006                       # miss rate for WriteReq accesses
system.cpu0.dcache.WriteReq_avg_miss_latency::.cpu0.data 69712.058648                       # average WriteReq miss latency
system.cpu0.dcache.WriteReq_avg_miss_latency::total 69712.058648                       # average WriteReq miss latency
system.cpu0.dcache.WriteReq_mshr_hits::.cpu0.data       545668                       # number of WriteReq MSHR hits
system.cpu0.dcache.WriteReq_mshr_hits::total       545668                       # number of WriteReq MSHR hits
system.cpu0.dcache.WriteReq_mshr_misses::.cpu0.data       910540                       # number of WriteReq MSHR misses
system.cpu0.dcache.WriteReq_mshr_misses::total       910540                       # number of WriteReq MSHR misses
system.cpu0.dcache.WriteReq_mshr_miss_latency::.cpu0.data  80717290000                       # number of WriteReq MSHR miss cycles
system.cpu0.dcache.WriteReq_mshr_miss_latency::total  80717290000                       # number of WriteReq MSHR miss cycles
system.cpu0.dcache.WriteReq_mshr_miss_rate::.cpu0.data     0.125060                       # mshr miss rate for WriteReq accesses
system.cpu0.dcache.WriteReq_mshr_miss_rate::total     0.125060                       # mshr miss rate for WriteReq accesses
system.cpu0.dcache.WriteReq_avg_mshr_miss_latency::.cpu0.data 88647.714543                       # average WriteReq mshr miss latency
system.cpu0.dcache.WriteReq_avg_mshr_miss_latency::total 88647.714543                       # average WriteReq mshr miss latency
system.cpu0.dcache.power_state.pwrStateResidencyTicks::UNDEFINED  59175534500                       # Cumulative time (in ticks) in various power states
system.cpu0.dcache.tags.tagsinuse           15.999780                       # Cycle average of tags in use
system.cpu0.dcache.tags.total_refs            8239842                       # Total number of references to valid blocks.
system.cpu0.dcache.tags.sampled_refs           919582                       # Sample count of references to valid blocks.
system.cpu0.dcache.tags.avg_refs             8.960421                       # Average number of references to valid blocks.
system.cpu0.dcache.tags.warmup_cycle           178500                       # Cycle when the warmup percentage was hit.
system.cpu0.dcache.tags.occ_blocks::.cpu0.data    15.999780                       # Average occupied blocks per requestor
system.cpu0.dcache.tags.occ_percent::.cpu0.data     0.999986                       # Average percentage of cache occupancy
system.cpu0.dcache.tags.occ_percent::total     0.999986                       # Average percentage of cache occupancy
system.cpu0.dcache.tags.occ_task_id_blocks::1024           16                       # Occupied blocks per task id
system.cpu0.dcache.tags.age_task_id_blocks_1024::0           14                       # Occupied blocks per task id
system.cpu0.dcache.tags.age_task_id_blocks_1024::4            2                       # Occupied blocks per task id
system.cpu0.dcache.tags.occ_task_id_percent::1024            1                       # Percentage of cache occupancy per task id
system.cpu0.dcache.tags.tag_accesses         71206350                       # Number of tag accesses
system.cpu0.dcache.tags.data_accesses        71206350                       # Number of data accesses
system.cpu0.dcache.tags.power_state.pwrStateResidencyTicks::UNDEFINED  59175534500                       # Cumulative time (in ticks) in various power states
system.cpu0.power_state.pwrStateResidencyTicks::ON  59175534500                       # Cumulative time (in ticks) in various power states
system.cpu0.itb.walker.power_state.pwrStateResidencyTicks::UNDEFINED  59175534500                       # Cumulative time (in ticks) in various power states
system.cpu1.icache.demand_hits::.cpu1.inst      1987582                       # number of demand (read+write) hits
system.cpu1.icache.demand_hits::total         1987582                       # number of demand (read+write) hits
system.cpu1.icache.overall_hits::.cpu1.inst      1987582                       # number of overall hits
system.cpu1.icache.overall_hits::total        1987582                       # number of overall hits
system.cpu1.icache.demand_misses::.cpu1.inst         8885                       # number of demand (read+write) misses
system.cpu1.icache.demand_misses::total          8885                       # number of demand (read+write) misses
system.cpu1.icache.overall_misses::.cpu1.inst         8885                       # number of overall misses
system.cpu1.icache.overall_misses::total         8885                       # number of overall misses
system.cpu1.icache.demand_miss_latency::.cpu1.inst    232199000                       # number of demand (read+write) miss cycles
system.cpu1.icache.demand_miss_latency::total    232199000                       # number of demand (read+write) miss cycles
system.cpu1.icache.overall_miss_latency::.cpu1.inst    232199000                       # number of overall miss cycles
system.cpu1.icache.overall_miss_latency::total    232199000                       # number of overall miss cycles
system.cpu1.icache.demand_accesses::.cpu1.inst      1996467                       # number of demand (read+write) accesses
system.cpu1.icache.demand_accesses::total      1996467                       # number of demand (read+write) accesses
system.cpu1.icache.overall_accesses::.cpu1.inst      1996467                       # number of overall (read+write) accesses
system.cpu1.icache.overall_accesses::total      1996467                       # number of overall (read+write) accesses
system.cpu1.icache.demand_miss_rate::.cpu1.inst     0.004450                       # miss rate for demand accesses
system.cpu1.icache.demand_miss_rate::total     0.004450                       # miss rate for demand accesses
system.cpu1.icache.overall_miss_rate::.cpu1.inst     0.004450                       # miss rate for overall accesses
system.cpu1.icache.overall_miss_rate::total     0.004450                       # miss rate for overall accesses
system.cpu1.icache.demand_avg_miss_latency::.cpu1.inst 26133.821047                       # average overall miss latency
system.cpu1.icache.demand_avg_miss_latency::total 26133.821047                       # average overall miss latency
system.cpu1.icache.overall_avg_miss_latency::.cpu1.inst 26133.821047                       # average overall miss latency
system.cpu1.icache.overall_avg_miss_latency::total 26133.821047                       # average overall miss latency
system.cpu1.icache.blocked_cycles::no_mshrs            0                       # number of cycles access was blocked
system.cpu1.icache.blocked_cycles::no_targets            0                       # number of cycles access was blocked
system.cpu1.icache.blocked::no_mshrs                0                       # number of cycles access was blocked
system.cpu1.icache.blocked::no_targets              0                       # number of cycles access was blocked
system.cpu1.icache.avg_blocked_cycles::no_mshrs          nan                       # average number of cycles each access was blocked
system.cpu1.icache.avg_blocked_cycles::no_targets          nan                       # average number of cycles each access was blocked
system.cpu1.icache.writebacks::.writebacks         8869                       # number of writebacks
system.cpu1.icache.writebacks::total             8869                       # number of writebacks
system.cpu1.icache.demand_mshr_misses::.cpu1.inst         8885                       # number of demand (read+write) MSHR misses
system.cpu1.icache.demand_mshr_misses::total         8885                       # number of demand (read+write) MSHR misses
system.cpu1.icache.overall_mshr_misses::.cpu1.inst         8885                       # number of overall MSHR misses
system.cpu1.icache.overall_mshr_misses::total         8885                       # number of overall MSHR misses
system.cpu1.icache.demand_mshr_miss_latency::.cpu1.inst    223314000                       # number of demand (read+write) MSHR miss cycles
system.cpu1.icache.demand_mshr_miss_latency::total    223314000                       # number of demand (read+write) MSHR miss cycles
system.cpu1.icache.overall_mshr_miss_latency::.cpu1.inst    223314000                       # number of overall MSHR miss cycles
system.cpu1.icache.overall_mshr_miss_latency::total    223314000                       # number of overall MSHR miss cycles
system.cpu1.icache.demand_mshr_miss_rate::.cpu1.inst     0.004450                       # mshr miss rate for demand accesses
system.cpu1.icache.demand_mshr_miss_rate::total     0.004450                       # mshr miss rate for demand accesses
system.cpu1.icache.overall_mshr_miss_rate::.cpu1.inst     0.004450                       # mshr miss rate for overall accesses
system.cpu1.icache.overall_mshr_miss_rate::total     0.004450                       # mshr miss rate for overall accesses
system.cpu1.icache.demand_avg_mshr_miss_latency::.cpu1.inst 25133.821047                       # average overall mshr miss latency
system.cpu1.icache.demand_avg_mshr_miss_latency::total 25133.821047                       # average overall mshr miss latency
system.cpu1.icache.overall_avg_mshr_miss_latency::.cpu1.inst 25133.821047                       # average overall mshr miss latency
system.cpu1.icache.overall_avg_mshr_miss_latency::total 25133.821047                       # average overall mshr miss latency
system.cpu1.icache.replacements                  8869                       # number of replacements
system.cpu1.icache.ReadReq_hits::.cpu1.inst      1987582                       # number of ReadReq hits
system.cpu1.icache.ReadReq_hits::total        1987582                       # number of ReadReq hits
system.cpu1.icache.ReadReq_misses::.cpu1.inst         8885                       # number of ReadReq misses
system.cpu1.icache.ReadReq_misses::total         8885                       # number of ReadReq misses
system.cpu1.icache.ReadReq_miss_latency::.cpu1.inst    232199000                       # number of ReadReq miss cycles
system.cpu1.icache.ReadReq_miss_latency::total    232199000                       # number of ReadReq miss cycles
system.cpu1.icache.ReadReq_accesses::.cpu1.inst      1996467                       # number of ReadReq accesses(hits+misses)
system.cpu1.icache.ReadReq_accesses::total      1996467                       # number of ReadReq accesses(hits+misses)
system.cpu1.icache.ReadReq_miss_rate::.cpu1.inst     0.004450                       # miss rate for ReadReq accesses
system.cpu1.icache.ReadReq_miss_rate::total     0.004450                       # miss rate for ReadReq accesses
system.cpu1.icache.ReadReq_avg_miss_latency::.cpu1.inst 26133.821047                       # average ReadReq miss latency
system.cpu1.icache.ReadReq_avg_miss_latency::total 26133.821047                       # average ReadReq miss latency
system.cpu1.icache.ReadReq_mshr_misses::.cpu1.inst         8885                       # number of ReadReq MSHR misses
system.cpu1.icache.ReadReq_mshr_misses::total         8885                       # number of ReadReq MSHR misses
system.cpu1.icache.ReadReq_mshr_miss_latency::.cpu1.inst    223314000                       # number of ReadReq MSHR miss cycles
system.cpu1.icache.ReadReq_mshr_miss_latency::total    223314000                       # number of ReadReq MSHR miss cycles
system.cpu1.icache.ReadReq_mshr_miss_rate::.cpu1.inst     0.004450                       # mshr miss rate for ReadReq accesses
system.cpu1.icache.ReadReq_mshr_miss_rate::total     0.004450                       # mshr miss rate for ReadReq accesses
system.cpu1.icache.ReadReq_avg_mshr_miss_latency::.cpu1.inst 25133.821047                       # average ReadReq mshr miss latency
system.cpu1.icache.ReadReq_avg_mshr_miss_latency::total 25133.821047                       # average ReadReq mshr miss latency
system.cpu1.icache.power_state.pwrStateResidencyTicks::UNDEFINED  59175534500                       # Cumulative time (in ticks) in various power states
system.cpu1.icache.tags.tagsinuse           15.999755                       # Cycle average of tags in use
system.cpu1.icache.tags.total_refs            1996467                       # Total number of references to valid blocks.
system.cpu1.icache.tags.sampled_refs             8885                       # Sample count of references to valid blocks.
system.cpu1.icache.tags.avg_refs           224.700844                       # Average number of references to valid blocks.
system.cpu1.icache.tags.warmup_cycle            92500                       # Cycle when the warmup percentage was hit.
system.cpu1.icache.tags.occ_blocks::.cpu1.inst    15.999755                       # Average occupied blocks per requestor
system.cpu1.icache.tags.occ_percent::.cpu1.inst     0.999985                       # Average percentage of cache occupancy
system.cpu1.icache.tags.occ_percent::total     0.999985                       # Average percentage of cache occupancy
system.cpu1.icache.tags.occ_task_id_blocks::1024           16                       # Occupied blocks per task id
system.cpu1.icache.tags.age_task_id_blocks_1024::4           16                       # Occupied blocks per task id
system.cpu1.icache.tags.occ_task_id_percent::1024            1                       # Percentage of cache occupancy per task id
system.cpu1.icache.tags.tag_accesses         15980621                       # Number of tag accesses
system.cpu1.icache.tags.data_accesses        15980621                       # Number of data accesses
system.cpu1.icache.tags.power_state.pwrStateResidencyTicks::UNDEFINED  59175534500                       # Cumulative time (in ticks) in various power states
system.cpu1.dtb.walker.power_state.pwrStateResidencyTicks::UNDEFINED  59175534500                       # Cumulative time (in ticks) in various power states
system.cpu1.interrupts.clk_domain.clock          8000                       # Clock period in ticks
system.cpu1.itb_walker_cache.blocked_cycles::no_mshrs            0                       # number of cycles access was blocked
system.cpu1.itb_walker_cache.blocked_cycles::no_targets            0                       # number of cycles access was blocked
system.cpu1.itb_walker_cache.blocked::no_mshrs            0                       # number of cycles access was blocked
system.cpu1.itb_walker_cache.blocked::no_targets            0                       # number of cycles access was blocked
system.cpu1.itb_walker_cache.avg_blocked_cycles::no_mshrs          nan                       # average number of cycles each access was blocked
system.cpu1.itb_walker_cache.avg_blocked_cycles::no_targets          nan                       # average number of cycles each access was blocked
system.cpu1.itb_walker_cache.replacements            0                       # number of replacements
system.cpu1.itb_walker_cache.power_state.pwrStateResidencyTicks::UNDEFINED  59175534500                       # Cumulative time (in ticks) in various power states
system.cpu1.itb_walker_cache.tags.tagsinuse            0                       # Cycle average of tags in use
system.cpu1.itb_walker_cache.tags.total_refs            0                       # Total number of references to valid blocks.
system.cpu1.itb_walker_cache.tags.sampled_refs            0                       # Sample count of references to valid blocks.
system.cpu1.itb_walker_cache.tags.avg_refs          nan                       # Average number of references to valid blocks.
system.cpu1.itb_walker_cache.tags.warmup_cycle            0                       # Cycle when the warmup percentage was hit.
system.cpu1.itb_walker_cache.tags.tag_accesses            0                       # Number of tag accesses
system.cpu1.itb_walker_cache.tags.data_accesses            0                       # Number of data accesses
system.cpu1.itb_walker_cache.tags.power_state.pwrStateResidencyTicks::UNDEFINED  59175534500                       # Cumulative time (in ticks) in various power states
system.cpu1.dtb_walker_cache.blocked_cycles::no_mshrs            0                       # number of cycles access was blocked
system.cpu1.dtb_walker_cache.blocked_cycles::no_targets            0                       # number of cycles access was blocked
system.cpu1.dtb_walker_cache.blocked::no_mshrs            0                       # number of cycles access was blocked
system.cpu1.dtb_walker_cache.blocked::no_targets            0                       # number of cycles access was blocked
system.cpu1.dtb_walker_cache.avg_blocked_cycles::no_mshrs          nan                       # average number of cycles each access was blocked
system.cpu1.dtb_walker_cache.avg_blocked_cycles::no_targets          nan                       # average number of cycles each access was blocked
system.cpu1.dtb_walker_cache.replacements            0                       # number of replacements
system.cpu1.dtb_walker_cache.power_state.pwrStateResidencyTicks::UNDEFINED  59175534500                       # Cumulative time (in ticks) in various power states
system.cpu1.dtb_walker_cache.tags.tagsinuse            0                       # Cycle average of tags in use
system.cpu1.dtb_walker_cache.tags.total_refs            0                       # Total number of references to valid blocks.
system.cpu1.dtb_walker_cache.tags.sampled_refs            0                       # Sample count of references to valid blocks.
system.cpu1.dtb_walker_cache.tags.avg_refs          nan                       # Average number of references to valid blocks.
system.cpu1.dtb_walker_cache.tags.warmup_cycle            0                       # Cycle when the warmup percentage was hit.
system.cpu1.dtb_walker_cache.tags.tag_accesses            0                       # Number of tag accesses
system.cpu1.dtb_walker_cache.tags.data_accesses            0                       # Number of data accesses
system.cpu1.dtb_walker_cache.tags.power_state.pwrStateResidencyTicks::UNDEFINED  59175534500                       # Cumulative time (in ticks) in various power states
system.cpu1.dcache.demand_hits::.cpu1.data      4418280                       # number of demand (read+write) hits
system.cpu1.dcache.demand_hits::total         4418280                       # number of demand (read+write) hits
system.cpu1.dcache.overall_hits::.cpu1.data      4418280                       # number of overall hits
system.cpu1.dcache.overall_hits::total        4418280                       # number of overall hits
system.cpu1.dcache.demand_misses::.cpu1.data      1203970                       # number of demand (read+write) misses
system.cpu1.dcache.demand_misses::total       1203970                       # number of demand (read+write) misses
system.cpu1.dcache.overall_misses::.cpu1.data      1203970                       # number of overall misses
system.cpu1.dcache.overall_misses::total      1203970                       # number of overall misses
system.cpu1.dcache.demand_miss_latency::.cpu1.data 106442368000                       # number of demand (read+write) miss cycles
system.cpu1.dcache.demand_miss_latency::total 106442368000                       # number of demand (read+write) miss cycles
system.cpu1.dcache.overall_miss_latency::.cpu1.data 106442368000                       # number of overall miss cycles
system.cpu1.dcache.overall_miss_latency::total 106442368000                       # number of overall miss cycles
system.cpu1.dcache.demand_accesses::.cpu1.data      5622250                       # number of demand (read+write) accesses
system.cpu1.dcache.demand_accesses::total      5622250                       # number of demand (read+write) accesses
system.cpu1.dcache.overall_accesses::.cpu1.data      5622250                       # number of overall (read+write) accesses
system.cpu1.dcache.overall_accesses::total      5622250                       # number of overall (read+write) accesses
system.cpu1.dcache.demand_miss_rate::.cpu1.data     0.214144                       # miss rate for demand accesses
system.cpu1.dcache.demand_miss_rate::total     0.214144                       # miss rate for demand accesses
system.cpu1.dcache.overall_miss_rate::.cpu1.data     0.214144                       # miss rate for overall accesses
system.cpu1.dcache.overall_miss_rate::total     0.214144                       # miss rate for overall accesses
system.cpu1.dcache.demand_avg_miss_latency::.cpu1.data 88409.485286                       # average overall miss latency
system.cpu1.dcache.demand_avg_miss_latency::total 88409.485286                       # average overall miss latency
system.cpu1.dcache.overall_avg_miss_latency::.cpu1.data 88409.485286                       # average overall miss latency
system.cpu1.dcache.overall_avg_miss_latency::total 88409.485286                       # average overall miss latency
system.cpu1.dcache.blocked_cycles::no_mshrs            0                       # number of cycles access was blocked
system.cpu1.dcache.blocked_cycles::no_targets            0                       # number of cycles access was blocked
system.cpu1.dcache.blocked::no_mshrs                0                       # number of cycles access was blocked
system.cpu1.dcache.blocked::no_targets              0                       # number of cycles access was blocked
system.cpu1.dcache.avg_blocked_cycles::no_mshrs          nan                       # average number of cycles each access was blocked
system.cpu1.dcache.avg_blocked_cycles::no_targets          nan                       # average number of cycles each access was blocked
system.cpu1.dcache.writebacks::.writebacks       597448                       # number of writebacks
system.cpu1.dcache.writebacks::total           597448                       # number of writebacks
system.cpu1.dcache.demand_mshr_hits::.cpu1.data       592768                       # number of demand (read+write) MSHR hits
system.cpu1.dcache.demand_mshr_hits::total       592768                       # number of demand (read+write) MSHR hits
system.cpu1.dcache.overall_mshr_hits::.cpu1.data       592768                       # number of overall MSHR hits
system.cpu1.dcache.overall_mshr_hits::total       592768                       # number of overall MSHR hits
system.cpu1.dcache.demand_mshr_misses::.cpu1.data       611202                       # number of demand (read+write) MSHR misses
system.cpu1.dcache.demand_mshr_misses::total       611202                       # number of demand (read+write) MSHR misses
system.cpu1.dcache.overall_mshr_misses::.cpu1.data       611202                       # number of overall MSHR misses
system.cpu1.dcache.overall_mshr_misses::total       611202                       # number of overall MSHR misses
system.cpu1.dcache.demand_mshr_miss_latency::.cpu1.data  52805727500                       # number of demand (read+write) MSHR miss cycles
system.cpu1.dcache.demand_mshr_miss_latency::total  52805727500                       # number of demand (read+write) MSHR miss cycles
system.cpu1.dcache.overall_mshr_miss_latency::.cpu1.data  52805727500                       # number of overall MSHR miss cycles
system.cpu1.dcache.overall_mshr_miss_latency::total  52805727500                       # number of overall MSHR miss cycles
system.cpu1.dcache.demand_mshr_miss_rate::.cpu1.data     0.108711                       # mshr miss rate for demand accesses
system.cpu1.dcache.demand_mshr_miss_rate::total     0.108711                       # mshr miss rate for demand accesses
system.cpu1.dcache.overall_mshr_miss_rate::.cpu1.data     0.108711                       # mshr miss rate for overall accesses
system.cpu1.dcache.overall_mshr_miss_rate::total     0.108711                       # mshr miss rate for overall accesses
system.cpu1.dcache.demand_avg_mshr_miss_latency::.cpu1.data 86396.522754                       # average overall mshr miss latency
system.cpu1.dcache.demand_avg_mshr_miss_latency::total 86396.522754                       # average overall mshr miss latency
system.cpu1.dcache.overall_avg_mshr_miss_latency::.cpu1.data 86396.522754                       # average overall mshr miss latency
system.cpu1.dcache.overall_avg_mshr_miss_latency::total 86396.522754                       # average overall mshr miss latency
system.cpu1.dcache.replacements                611185                       # number of replacements
system.cpu1.dcache.ReadReq_hits::.cpu1.data       777834                       # number of ReadReq hits
system.cpu1.dcache.ReadReq_hits::total         777834                       # number of ReadReq hits
system.cpu1.dcache.ReadReq_misses::.cpu1.data        16398                       # number of ReadReq misses
system.cpu1.dcache.ReadReq_misses::total        16398                       # number of ReadReq misses
system.cpu1.dcache.ReadReq_miss_latency::.cpu1.data    425660000                       # number of ReadReq miss cycles
system.cpu1.dcache.ReadReq_miss_latency::total    425660000                       # number of ReadReq miss cycles
system.cpu1.dcache.ReadReq_accesses::.cpu1.data       794232                       # number of ReadReq accesses(hits+misses)
system.cpu1.dcache.ReadReq_accesses::total       794232                       # number of ReadReq accesses(hits+misses)
system.cpu1.dcache.ReadReq_miss_rate::.cpu1.data     0.020646                       # miss rate for ReadReq accesses
system.cpu1.dcache.ReadReq_miss_rate::total     0.020646                       # miss rate for ReadReq accesses
system.cpu1.dcache.ReadReq_avg_miss_latency::.cpu1.data 25958.043664                       # average ReadReq miss latency
system.cpu1.dcache.ReadReq_avg_miss_latency::total 25958.043664                       # average ReadReq miss latency
system.cpu1.dcache.ReadReq_mshr_hits::.cpu1.data          303                       # number of ReadReq MSHR hits
system.cpu1.dcache.ReadReq_mshr_hits::total          303                       # number of ReadReq MSHR hits
system.cpu1.dcache.ReadReq_mshr_misses::.cpu1.data        16095                       # number of ReadReq MSHR misses
system.cpu1.dcache.ReadReq_mshr_misses::total        16095                       # number of ReadReq MSHR misses
system.cpu1.dcache.ReadReq_mshr_miss_latency::.cpu1.data    396719500                       # number of ReadReq MSHR miss cycles
system.cpu1.dcache.ReadReq_mshr_miss_latency::total    396719500                       # number of ReadReq MSHR miss cycles
system.cpu1.dcache.ReadReq_mshr_miss_rate::.cpu1.data     0.020265                       # mshr miss rate for ReadReq accesses
system.cpu1.dcache.ReadReq_mshr_miss_rate::total     0.020265                       # mshr miss rate for ReadReq accesses
system.cpu1.dcache.ReadReq_avg_mshr_miss_latency::.cpu1.data 24648.617583                       # average ReadReq mshr miss latency
system.cpu1.dcache.ReadReq_avg_mshr_miss_latency::total 24648.617583                       # average ReadReq mshr miss latency
system.cpu1.dcache.WriteReq_hits::.cpu1.data      3640446                       # number of WriteReq hits
system.cpu1.dcache.WriteReq_hits::total       3640446                       # number of WriteReq hits
system.cpu1.dcache.WriteReq_misses::.cpu1.data      1187572                       # number of WriteReq misses
system.cpu1.dcache.WriteReq_misses::total      1187572                       # number of WriteReq misses
system.cpu1.dcache.WriteReq_miss_latency::.cpu1.data 106016708000                       # number of WriteReq miss cycles
system.cpu1.dcache.WriteReq_miss_latency::total 106016708000                       # number of WriteReq miss cycles
system.cpu1.dcache.WriteReq_accesses::.cpu1.data      4828018                       # number of WriteReq accesses(hits+misses)
system.cpu1.dcache.WriteReq_accesses::total      4828018                       # number of WriteReq accesses(hits+misses)
[...]
system.mem_ctrls.bytesPerActivate::0-127         9595      3.99%      3.99% # Bytes accessed per row activation
system.mem_ctrls.bytesPerActivate::128-255        15748      6.55%     10.54% # Bytes accessed per row activation
system.mem_ctrls.bytesPerActivate::256-383        12531      5.21%     15.75% # Bytes accessed per row activation
system.mem_ctrls.bytesPerActivate::384-511        11360      4.72%     20.47% # Bytes accessed per row activation
system.mem_ctrls.bytesPerActivate::512-639        13510      5.62%     26.09% # Bytes accessed per row activation
system.mem_ctrls.bytesPerActivate::640-767        15001      6.24%     32.33% # Bytes accessed per row activation
system.mem_ctrls.bytesPerActivate::768-895         8692      3.61%     35.94% # Bytes accessed per row activation
system.mem_ctrls.bytesPerActivate::896-1023         7783      3.24%     39.18% # Bytes accessed per row activation
system.mem_ctrls.bytesPerActivate::1024-1151       146288     60.82%    100.00% # Bytes accessed per row activation
system.mem_ctrls.bytesPerActivate::total       240508                       # Bytes accessed per row activation
system.mem_ctrls.rdPerTurnAround::samples        93398                       # Reads before turning the bus around for writes
system.mem_ctrls.rdPerTurnAround::mean      16.160282                       # Reads before turning the bus around for writes
system.mem_ctrls.rdPerTurnAround::gmean     16.064284                       # Reads before turning the bus around for writes
system.mem_ctrls.rdPerTurnAround::stdev      3.747791                       # Reads before turning the bus around for writes
system.mem_ctrls.rdPerTurnAround::0-31          93265     99.86%     99.86% # Reads before turning the bus around for writes
system.mem_ctrls.rdPerTurnAround::32-63            48      0.05%     99.91% # Reads before turning the bus around for writes
system.mem_ctrls.rdPerTurnAround::64-95            47      0.05%     99.96% # Reads before turning the bus around for writes
system.mem_ctrls.rdPerTurnAround::96-127           26      0.03%     99.99% # Reads before turning the bus around for writes
system.mem_ctrls.rdPerTurnAround::128-159            4      0.00%     99.99% # Reads before turning the bus around for writes
system.mem_ctrls.rdPerTurnAround::160-191            2      0.00%     99.99% # Reads before turning the bus around for writes
system.mem_ctrls.rdPerTurnAround::192-223            3      0.00%    100.00% # Reads before turning the bus around for writes
system.mem_ctrls.rdPerTurnAround::224-255            1      0.00%    100.00% # Reads before turning the bus around for writes
system.mem_ctrls.rdPerTurnAround::320-351            1      0.00%    100.00% # Reads before turning the bus around for writes
system.mem_ctrls.rdPerTurnAround::640-671            1      0.00%    100.00% # Reads before turning the bus around for writes
system.mem_ctrls.rdPerTurnAround::total         93398                       # Reads before turning the bus around for writes
system.mem_ctrls.wrPerTurnAround::samples        93398                       # Writes before turning the bus around for reads
system.mem_ctrls.wrPerTurnAround::mean      16.042581                       # Writes before turning the bus around for reads
system.mem_ctrls.wrPerTurnAround::gmean     16.038126                       # Writes before turning the bus around for reads
system.mem_ctrls.wrPerTurnAround::stdev      0.408582                       # Writes before turning the bus around for reads
system.mem_ctrls.wrPerTurnAround::16            92254     98.78%     98.78% # Writes before turning the bus around for reads
system.mem_ctrls.wrPerTurnAround::17              162      0.17%     98.95% # Writes before turning the bus around for reads
system.mem_ctrls.wrPerTurnAround::18               61      0.07%     99.01% # Writes before turning the bus around for reads
system.mem_ctrls.wrPerTurnAround::19              251      0.27%     99.28% # Writes before turning the bus around for reads
system.mem_ctrls.wrPerTurnAround::20              428      0.46%     99.74% # Writes before turning the bus around for reads
system.mem_ctrls.wrPerTurnAround::21              224      0.24%     99.98% # Writes before turning the bus around for reads
system.mem_ctrls.wrPerTurnAround::22               18      0.02%    100.00% # Writes before turning the bus around for reads
system.mem_ctrls.wrPerTurnAround::total         93398                       # Writes before turning the bus around for reads
system.mem_ctrls.bytesReadDRAM               96598720                       # Total number of bytes read from DRAM
system.mem_ctrls.bytesReadWrQ                    8576                       # Total number of bytes read from write queue
system.mem_ctrls.bytesWritten                95894080                       # Total number of bytes written to DRAM
system.mem_ctrls.bytesReadSys                96607296                       # Total read bytes from the system interface side
system.mem_ctrls.bytesWrittenSys             95897792                       # Total written bytes from the system interface side
system.mem_ctrls.avgRdBW                      1632.41                       # Average DRAM read bandwidth in MiByte/s
system.mem_ctrls.avgWrBW                      1620.50                       # Average achieved write bandwidth in MiByte/s
system.mem_ctrls.avgRdBWSys                   1632.55                       # Average system read bandwidth in MiByte/s
system.mem_ctrls.avgWrBWSys                   1620.56                       # Average system write bandwidth in MiByte/s
system.mem_ctrls.peakBW                      12800.00                       # Theoretical peak bandwidth in MiByte/s
system.mem_ctrls.busUtil                        25.41                       # Data bus utilization in percentage
system.mem_ctrls.busUtilRead                    12.75                       # Data bus utilization in percentage for reads
system.mem_ctrls.busUtilWrite                   12.66                       # Data bus utilization in percentage for writes
system.mem_ctrls.totGap                   59175496000                       # Total gap between requests
system.mem_ctrls.avgGap                      19673.41                       # Average gap between requests
system.mem_ctrls.masterReadBytes::.cpu0.inst       163776                       # Per-master bytes read from memory
system.mem_ctrls.masterReadBytes::.cpu0.data     58410944                       # Per-master bytes read from memory
system.mem_ctrls.masterReadBytes::.cpu1.inst        98048                       # Per-master bytes read from memory
system.mem_ctrls.masterReadBytes::.cpu1.data     37925952                       # Per-master bytes read from memory
system.mem_ctrls.masterWriteBytes::.writebacks     95894080                       # Per-master bytes write to memory
system.mem_ctrls.masterReadRate::.cpu0.inst 2767630.261117455550                       # Per-master bytes read from memory rate (Bytes/sec)
system.mem_ctrls.masterReadRate::.cpu0.data 987079280.204896092415                       # Per-master bytes read from memory rate (Bytes/sec)
system.mem_ctrls.masterReadRate::.cpu1.inst 1656900.961325495038                       # Per-master bytes read from memory rate (Bytes/sec)
system.mem_ctrls.masterReadRate::.cpu1.data 640905947.372558116913                       # Per-master bytes read from memory rate (Bytes/sec)
system.mem_ctrls.masterWriteRate::.writebacks 1620502135.050423622131                       # Per-master bytes write to memory rate (Bytes/sec)
system.mem_ctrls.masterReadAccesses::.cpu0.inst         2559                       # Per-master read serviced memory accesses
system.mem_ctrls.masterReadAccesses::.cpu0.data       912801                       # Per-master read serviced memory accesses
system.mem_ctrls.masterReadAccesses::.cpu1.inst         1532                       # Per-master read serviced memory accesses
system.mem_ctrls.masterReadAccesses::.cpu1.data       592597                       # Per-master read serviced memory accesses
system.mem_ctrls.masterWriteAccesses::.writebacks      1498403                       # Per-master write serviced memory accesses
system.mem_ctrls.masterReadTotalLat::.cpu0.inst     77903500                       # Per-master read total memory access latency
system.mem_ctrls.masterReadTotalLat::.cpu0.data  32779039250                       # Per-master read total memory access latency
system.mem_ctrls.masterReadTotalLat::.cpu1.inst     50356250                       # Per-master read total memory access latency
system.mem_ctrls.masterReadTotalLat::.cpu1.data  21058747500                       # Per-master read total memory access latency
system.mem_ctrls.masterWriteTotalLat::.writebacks 1501148505000                       # Per-master write total memory access latency
system.mem_ctrls.masterReadAvgLat::.cpu0.inst     30442.95                       # Per-master read average memory access latency
system.mem_ctrls.masterReadAvgLat::.cpu0.data     35910.39                       # Per-master read average memory access latency
system.mem_ctrls.masterReadAvgLat::.cpu1.inst     32869.61                       # Per-master read average memory access latency
system.mem_ctrls.masterReadAvgLat::.cpu1.data     35536.37                       # Per-master read average memory access latency
system.mem_ctrls.masterWriteAvgLat::.writebacks   1001832.29                       # Per-master write average memory access latency
system.mem_ctrls.pageHitRate                    92.00                       # Row buffer hit rate, read and write combined
system.mem_ctrls.rank1.actEnergy            858106620                       # Energy for activate commands per rank (pJ)
system.mem_ctrls.rank1.preEnergy            456094485                       # Energy for precharge commands per rank (pJ)
system.mem_ctrls.rank1.readEnergy          5382481860                       # Energy for read commands per rank (pJ)
system.mem_ctrls.rank1.writeEnergy         3908417580                       # Energy for write commands per rank (pJ)
system.mem_ctrls.rank1.refreshEnergy     4671264000.000001                       # Energy for refresh commands per rank (pJ)
system.mem_ctrls.rank1.actBackEnergy      20249592000                       # Energy for active background per rank (pJ)
system.mem_ctrls.rank1.preBackEnergy       5671198560                       # Energy for precharge background per rank (pJ)
system.mem_ctrls.rank1.actPowerDownEnergy            0                       # Energy for active power-down per rank (pJ)
system.mem_ctrls.rank1.prePowerDownEnergy            0                       # Energy for precharge power-down per rank (pJ)
system.mem_ctrls.rank1.selfRefreshEnergy            0                       # Energy for self refresh per rank (pJ)
system.mem_ctrls.rank1.totalEnergy        41197155105                       # Total energy per rank (pJ)
system.mem_ctrls.rank1.averagePower        696.185602                       # Core power per rank (mW)
system.mem_ctrls.rank1.totalIdleTime                0                       # Total Idle time Per DRAM Rank
system.mem_ctrls.rank1.memoryStateTime::IDLE  14408361500                       # Time in different power states
system.mem_ctrls.rank1.memoryStateTime::REF   1975774500                       # Time in different power states
system.mem_ctrls.rank1.memoryStateTime::SREF            0                       # Time in different power states
system.mem_ctrls.rank1.memoryStateTime::PRE_PDN            0                       # Time in different power states
system.mem_ctrls.rank1.memoryStateTime::ACT  42791398500                       # Time in different power states
system.mem_ctrls.rank1.memoryStateTime::ACT_PDN            0                       # Time in different power states
system.mem_ctrls.rank0.actEnergy            859120500                       # Energy for activate commands per rank (pJ)
system.mem_ctrls.rank0.preEnergy            456633375                       # Energy for precharge commands per rank (pJ)
system.mem_ctrls.rank0.readEnergy          5394312840                       # Energy for read commands per rank (pJ)
system.mem_ctrls.rank0.writeEnergy         3912943320                       # Energy for write commands per rank (pJ)
system.mem_ctrls.rank0.refreshEnergy     4671264000.000001                       # Energy for refresh commands per rank (pJ)
system.mem_ctrls.rank0.actBackEnergy      20201160810                       # Energy for active background per rank (pJ)
system.mem_ctrls.rank0.preBackEnergy       5711988000                       # Energy for precharge background per rank (pJ)
system.mem_ctrls.rank0.actPowerDownEnergy            0                       # Energy for active power-down per rank (pJ)
system.mem_ctrls.rank0.prePowerDownEnergy            0                       # Energy for precharge power-down per rank (pJ)
system.mem_ctrls.rank0.selfRefreshEnergy            0                       # Energy for self refresh per rank (pJ)
system.mem_ctrls.rank0.totalEnergy        41207422845                       # Total energy per rank (pJ)
system.mem_ctrls.rank0.averagePower        696.359115                       # Core power per rank (mW)
system.mem_ctrls.rank0.totalIdleTime                0                       # Total Idle time Per DRAM Rank
system.mem_ctrls.rank0.memoryStateTime::IDLE  14514413250                       # Time in different power states
system.mem_ctrls.rank0.memoryStateTime::REF   1975760750                       # Time in different power states
system.mem_ctrls.rank0.memoryStateTime::SREF            0                       # Time in different power states
system.mem_ctrls.rank0.memoryStateTime::PRE_PDN            0                       # Time in different power states
system.mem_ctrls.rank0.memoryStateTime::ACT  42685360500                       # Time in different power states
system.mem_ctrls.rank0.memoryStateTime::ACT_PDN            0                       # Time in different power states
system.mem_ctrls.power_state.pwrStateResidencyTicks::UNDEFINED  59175534500                       # Cumulative time (in ticks) in various power states
system.cpu_clk_domain.clock                       500                       # Clock period in ticks
system.tol2bus.trans_dist::ReadResp             45131                       # Transaction distribution
system.tol2bus.trans_dist::WritebackDirty      3007963                       # Transaction distribution
system.tol2bus.trans_dist::WritebackClean        19961                       # Transaction distribution
system.tol2bus.trans_dist::CleanEvict           31455                       # Transaction distribution
system.tol2bus.trans_dist::ReadExReq          1505647                       # Transaction distribution
system.tol2bus.trans_dist::ReadExResp         1505645                       # Transaction distribution
system.tol2bus.trans_dist::ReadCleanReq         19993                       # Transaction distribution
system.tol2bus.trans_dist::ReadSharedReq        25138                       # Transaction distribution
system.tol2bus.pkt_count_system.cpu0.icache.mem_side::system.l2.cpu_side        33308                       # Packet count per connected master and slave (bytes)
system.tol2bus.pkt_count_system.cpu0.dcache.mem_side::system.l2.cpu_side      2758731                       # Packet count per connected master and slave (bytes)
system.tol2bus.pkt_count_system.cpu1.icache.mem_side::system.l2.cpu_side        26639                       # Packet count per connected master and slave (bytes)
system.tol2bus.pkt_count_system.cpu1.dcache.mem_side::system.l2.cpu_side      1833588                       # Packet count per connected master and slave (bytes)
system.tol2bus.pkt_count::total               4652266                       # Packet count per connected master and slave (bytes)
system.tol2bus.pkt_size_system.cpu0.icache.mem_side::system.l2.cpu_side      1420800                       # Cumulative packet size per connected master and slave (bytes)
system.tol2bus.pkt_size_system.cpu0.dcache.mem_side::system.l2.cpu_side    117228416                       # Cumulative packet size per connected master and slave (bytes)
system.tol2bus.pkt_size_system.cpu1.icache.mem_side::system.l2.cpu_side      1136256                       # Cumulative packet size per connected master and slave (bytes)
system.tol2bus.pkt_size_system.cpu1.dcache.mem_side::system.l2.cpu_side     77353536                       # Cumulative packet size per connected master and slave (bytes)
system.tol2bus.pkt_size::total              197139008                       # Cumulative packet size per connected master and slave (bytes)
system.tol2bus.snoops                         1508667                       # Total snoops (count)
system.tol2bus.snoopTraffic                  95897792                       # Total snoop traffic (bytes)
system.tol2bus.snoop_fanout::samples          3059445                       # Request fanout histogram
system.tol2bus.snoop_fanout::mean            0.000120                       # Request fanout histogram
system.tol2bus.snoop_fanout::stdev           0.010937                       # Request fanout histogram
system.tol2bus.snoop_fanout::underflows             0      0.00%      0.00% # Request fanout histogram
system.tol2bus.snoop_fanout::0                3059079     99.99%     99.99% # Request fanout histogram
system.tol2bus.snoop_fanout::1                    366      0.01%    100.00% # Request fanout histogram
system.tol2bus.snoop_fanout::2                      0      0.00%    100.00% # Request fanout histogram
system.tol2bus.snoop_fanout::3                      0      0.00%    100.00% # Request fanout histogram
system.tol2bus.snoop_fanout::4                      0      0.00%    100.00% # Request fanout histogram
system.tol2bus.snoop_fanout::5                      0      0.00%    100.00% # Request fanout histogram
system.tol2bus.snoop_fanout::6                      0      0.00%    100.00% # Request fanout histogram
system.tol2bus.snoop_fanout::7                      0      0.00%    100.00% # Request fanout histogram
system.tol2bus.snoop_fanout::8                      0      0.00%    100.00% # Request fanout histogram
system.tol2bus.snoop_fanout::overflows              0      0.00%    100.00% # Request fanout histogram
system.tol2bus.snoop_fanout::min_value              0                       # Request fanout histogram
system.tol2bus.snoop_fanout::max_value              1                       # Request fanout histogram
system.tol2bus.snoop_fanout::total            3059445                       # Request fanout histogram
system.tol2bus.reqLayer0.occupancy         3080266000                       # Layer occupancy (ticks)
system.tol2bus.reqLayer0.utilization              5.2                       # Layer utilization (%)
system.tol2bus.respLayer5.occupancy         916820462                       # Layer occupancy (ticks)
system.tol2bus.respLayer5.utilization             1.5                       # Layer utilization (%)
system.tol2bus.respLayer4.occupancy          13335484                       # Layer occupancy (ticks)
system.tol2bus.respLayer4.utilization             0.0                       # Layer utilization (%)
system.tol2bus.respLayer1.occupancy        1379436373                       # Layer occupancy (ticks)
system.tol2bus.respLayer1.utilization             2.3                       # Layer utilization (%)
system.tol2bus.respLayer0.occupancy          16685952                       # Layer occupancy (ticks)
system.tol2bus.respLayer0.utilization             0.0                       # Layer utilization (%)
system.tol2bus.power_state.pwrStateResidencyTicks::UNDEFINED  59175534500                       # Cumulative time (in ticks) in various power states

---------- End Simulation Statistics   ----------
