
---------- Begin Simulation Statistics ----------
final_tick                                61235148500                       # Number of ticks from beginning of simulation (restored from checkpoints and never reset)
host_inst_rate                                 236497                       # Simulator instruction rate (inst/s)
host_mem_usage                                4444612                       # Number of bytes of host memory used
host_op_rate                                   343145                       # Simulator op (including micro ops) rate (op/s)
host_seconds                                    84.42                       # Real time elapsed on the host
host_tick_rate                              725376473                       # Simulator tick rate (ticks/s)
sim_freq                                 1000000000000                       # Frequency of simulated ticks
sim_insts                                    19964670                       # Number of instructions simulated
sim_ops                                      28967720                       # Number of ops (including micro ops) simulated
sim_seconds                                  0.061235                       # Number of seconds simulated
sim_ticks                                 61235148500                       # Number of ticks simulated
system.cpu0.branchPred.BTBCorrect                   0                       # Number of correct BTB predictions (this stat may not work properly.
system.cpu0.branchPred.BTBHitPct                  nan                       # BTB Hit Percentage
system.cpu0.branchPred.BTBHits                      0                       # Number of BTB hits
system.cpu0.branchPred.BTBLookups                   0                       # Number of BTB lookups
system.cpu0.branchPred.RASInCorrect                 0                       # Number of incorrect RAS predictions.
system.cpu0.branchPred.condIncorrect               40                       # Number of conditional branches incorrect
system.cpu0.branchPred.condPredicted               82                       # Number of conditional branches predicted
system.cpu0.branchPred.indirectHits                 1                       # Number of indirect target hits.
system.cpu0.branchPred.indirectLookups             25                       # Number of indirect predictor lookups.
system.cpu0.branchPred.indirectMisses              24                       # Number of indirect misses.
system.cpu0.branchPred.lookups                     82                       # Number of BP lookups
system.cpu0.branchPred.usedRAS                      0                       # Number of times the RAS was used to get a target.
system.cpu0.branchPredindirectMispredicted           12                       # Number of mispredicted indirect branches.
system.cpu0.committedInsts                    9964669                       # Number of instructions committed
system.cpu0.committedOps                     14458352                       # Number of ops (including micro ops) committed
system.cpu0.cpi                             12.290451                       # CPI: cycles per instruction
system.cpu0.discardedOps                      1913763                       # Number of ops (including micro ops) which were discarded before commit
system.cpu0.dtb.rdAccesses                    1864462                       # TLB accesses on read requests
system.cpu0.dtb.rdMisses                       364253                       # TLB misses on read requests
system.cpu0.dtb.wrAccesses                    7269628                       # TLB accesses on write requests
system.cpu0.dtb.wrMisses                        28347                       # TLB misses on write requests
system.cpu0.fetch2.amo_instructions                 0                       # Number of memory atomic instructions successfully decoded
system.cpu0.fetch2.fp_instructions                  0                       # Number of floating point instructions successfully decoded
system.cpu0.fetch2.int_instructions                 8                       # Number of integer instructions successfully decoded
system.cpu0.fetch2.load_instructions                0                       # Number of memory load instructions successfully decoded
system.cpu0.fetch2.store_instructions               0                       # Number of memory store instructions successfully decoded
system.cpu0.fetch2.vec_instructions                 0                       # Number of SIMD instructions successfully decoded
system.cpu0.idleCycles                      102568991                       # Total number of cycles that the object has spent stopped
system.cpu0.ipc                              0.081364                       # IPC: instructions per cycle
system.cpu0.itb.rdAccesses                          0                       # TLB accesses on read requests
system.cpu0.itb.rdMisses                            0                       # TLB misses on read requests
system.cpu0.itb.wrAccesses                    2305155                       # TLB accesses on write requests
system.cpu0.itb.wrMisses                          260                       # TLB misses on write requests
system.cpu0.numCycles                       122470278                       # number of cpu cycles simulated
system.cpu0.numFetchSuspends                        0                       # Number of times Execute suspended instruction fetching
system.cpu0.numWorkItemsCompleted                   0                       # number of work items this cpu completed
system.cpu0.numWorkItemsStarted                     0                       # number of work items this cpu started
system.cpu0.op_class_0::No_OpClass               1997      0.01%      0.01% # Class of committed instruction
system.cpu0.op_class_0::IntAlu                4962372     34.32%     34.34% # Class of committed instruction
system.cpu0.op_class_0::IntMult                    36      0.00%     34.34% # Class of committed instruction
system.cpu0.op_class_0::IntDiv                   1447      0.01%     34.35% # Class of committed instruction
system.cpu0.op_class_0::FloatAdd              1086471      7.51%     41.86% # Class of committed instruction
system.cpu0.op_class_0::FloatCmp                    0      0.00%     41.86% # Class of committed instruction
system.cpu0.op_class_0::FloatCvt                  112      0.00%     41.86% # Class of committed instruction
system.cpu0.op_class_0::FloatMult                   0      0.00%     41.86% # Class of committed instruction
system.cpu0.op_class_0::FloatMultAcc                0      0.00%     41.86% # Class of committed instruction
system.cpu0.op_class_0::FloatDiv                    0      0.00%     41.86% # Class of committed instruction
system.cpu0.op_class_0::FloatMisc                   0      0.00%     41.86% # Class of committed instruction
system.cpu0.op_class_0::FloatSqrt                   0      0.00%     41.86% # Class of committed instruction
system.cpu0.op_class_0::SimdAdd                  1140      0.01%     41.87% # Class of committed instruction
system.cpu0.op_class_0::SimdAddAcc                  0      0.00%     41.87% # Class of committed instruction
system.cpu0.op_class_0::SimdAlu                  1367      0.01%     41.88% # Class of committed instruction
system.cpu0.op_class_0::SimdCmp                    12      0.00%     41.88% # Class of committed instruction
system.cpu0.op_class_0::SimdCvt                  1866      0.01%     41.89% # Class of committed instruction
system.cpu0.op_class_0::SimdMisc                 1287      0.01%     41.90% # Class of committed instruction
system.cpu0.op_class_0::SimdMult                    0      0.00%     41.90% # Class of committed instruction
system.cpu0.op_class_0::SimdMultAcc                 0      0.00%     41.90% # Class of committed instruction
system.cpu0.op_class_0::SimdShift                 426      0.00%     41.90% # Class of committed instruction
system.cpu0.op_class_0::SimdShiftAcc                0      0.00%     41.90% # Class of committed instruction
system.cpu0.op_class_0::SimdDiv                     0      0.00%     41.90% # Class of committed instruction
system.cpu0.op_class_0::SimdSqrt                    0      0.00%     41.90% # Class of committed instruction
system.cpu0.op_class_0::SimdFloatAdd                0      0.00%     41.90% # Class of committed instruction
system.cpu0.op_class_0::SimdFloatAlu                0      0.00%     41.90% # Class of committed instruction
system.cpu0.op_class_0::SimdFloatCmp                0      0.00%     41.90% # Class of committed instruction
system.cpu0.op_class_0::SimdFloatCvt                2      0.00%     41.90% # Class of committed instruction
system.cpu0.op_class_0::SimdFloatDiv                0      0.00%     41.90% # Class of committed instruction
system.cpu0.op_class_0::SimdFloatMisc               0      0.00%     41.90% # Class of committed instruction
system.cpu0.op_class_0::SimdFloatMult               0      0.00%     41.90% # Class of committed instruction
system.cpu0.op_class_0::SimdFloatMultAcc            0      0.00%     41.90% # Class of committed instruction
system.cpu0.op_class_0::SimdFloatSqrt               0      0.00%     41.90% # Class of committed instruction
system.cpu0.op_class_0::SimdReduceAdd               0      0.00%     41.90% # Class of committed instruction
system.cpu0.op_class_0::SimdReduceAlu               0      0.00%     41.90% # Class of committed instruction
system.cpu0.op_class_0::SimdReduceCmp               0      0.00%     41.90% # Class of committed instruction
system.cpu0.op_class_0::SimdFloatReduceAdd            0      0.00%     41.90% # Class of committed instruction
system.cpu0.op_class_0::SimdFloatReduceCmp            0      0.00%     41.90% # Class of committed instruction
system.cpu0.op_class_0::SimdAes                     0      0.00%     41.90% # Class of committed instruction
system.cpu0.op_class_0::SimdAesMix                  0      0.00%     41.90% # Class of committed instruction
system.cpu0.op_class_0::SimdSha1Hash                0      0.00%     41.90% # Class of committed instruction
system.cpu0.op_class_0::SimdSha1Hash2               0      0.00%     41.90% # Class of committed instruction
system.cpu0.op_class_0::SimdSha256Hash              0      0.00%     41.90% # Class of committed instruction
system.cpu0.op_class_0::SimdSha256Hash2             0      0.00%     41.90% # Class of committed instruction
system.cpu0.op_class_0::SimdShaSigma2               0      0.00%     41.90% # Class of committed instruction
system.cpu0.op_class_0::SimdShaSigma3               0      0.00%     41.90% # Class of committed instruction
system.cpu0.op_class_0::SimdPredAlu                 0      0.00%     41.90% # Class of committed instruction
system.cpu0.op_class_0::MemRead                 42409      0.29%     42.20% # Class of committed instruction
system.cpu0.op_class_0::MemWrite               387930      2.68%     44.88% # Class of committed instruction
system.cpu0.op_class_0::FloatMemRead          1088553      7.53%     52.41% # Class of committed instruction
system.cpu0.op_class_0::FloatMemWrite         6880925     47.59%    100.00% # Class of committed instruction
system.cpu0.op_class_0::IprAccess                   0      0.00%    100.00% # Class of committed instruction
system.cpu0.op_class_0::InstPrefetch                0      0.00%    100.00% # Class of committed instruction
system.cpu0.op_class_0::total                14458352                       # Class of committed instruction
system.cpu0.tickCycles                       19901287                       # Number of cycles that the object actually ticked
system.cpu0.workload.numSyscalls                   40                       # Number of system calls
system.cpu1.branchPred.BTBCorrect                   0                       # Number of correct BTB predictions (this stat may not work properly.
system.cpu1.branchPred.BTBHitPct                  nan                       # BTB Hit Percentage
system.cpu1.branchPred.BTBHits                      0                       # Number of BTB hits
system.cpu1.branchPred.BTBLookups                   0                       # Number of BTB lookups
system.cpu1.branchPred.RASInCorrect                 0                       # Number of incorrect RAS predictions.
system.cpu1.branchPred.condIncorrect               40                       # Number of conditional branches incorrect
system.cpu1.branchPred.condPredicted               85                       # Number of conditional branches predicted
system.cpu1.branchPred.indirectHits                 0                       # Number of indirect target hits.
system.cpu1.branchPred.indirectLookups             25                       # Number of indirect predictor lookups.
system.cpu1.branchPred.indirectMisses              25                       # Number of indirect misses.
system.cpu1.branchPred.lookups                     85                       # Number of BP lookups
system.cpu1.branchPred.usedRAS                      0                       # Number of times the RAS was used to get a target.
system.cpu1.branchPredindirectMispredicted           11                       # Number of mispredicted indirect branches.
system.cpu1.committedInsts                   10000001                       # Number of instructions committed
system.cpu1.committedOps                     14509368                       # Number of ops (including micro ops) committed
system.cpu1.cpi                             12.247028                       # CPI: cycles per instruction
system.cpu1.discardedOps                      1920443                       # Number of ops (including micro ops) which were discarded before commit
system.cpu1.dtb.rdAccesses                    1871003                       # TLB accesses on read requests
system.cpu1.dtb.rdMisses                       365558                       # TLB misses on read requests
system.cpu1.dtb.wrAccesses                    7295814                       # TLB accesses on write requests
system.cpu1.dtb.wrMisses                        28454                       # TLB misses on write requests
system.cpu1.fetch2.amo_instructions                 0                       # Number of memory atomic instructions successfully decoded
system.cpu1.fetch2.fp_instructions                  0                       # Number of floating point instructions successfully decoded
system.cpu1.fetch2.int_instructions                 8                       # Number of integer instructions successfully decoded
system.cpu1.fetch2.load_instructions                0                       # Number of memory load instructions successfully decoded
system.cpu1.fetch2.store_instructions               0                       # Number of memory store instructions successfully decoded
system.cpu1.fetch2.vec_instructions                 0                       # Number of SIMD instructions successfully decoded
system.cpu1.idleCycles                      102500164                       # Total number of cycles that the object has spent stopped
system.cpu1.ipc                              0.081652                       # IPC: instructions per cycle
system.cpu1.itb.rdAccesses                          0                       # TLB accesses on read requests
system.cpu1.itb.rdMisses                            0                       # TLB misses on read requests
system.cpu1.itb.wrAccesses                    2313333                       # TLB accesses on write requests
system.cpu1.itb.wrMisses                          278                       # TLB misses on write requests
system.cpu1.numCycles                       122470297                       # number of cpu cycles simulated
system.cpu1.numFetchSuspends                        0                       # Number of times Execute suspended instruction fetching
system.cpu1.numWorkItemsCompleted                   0                       # number of work items this cpu completed
system.cpu1.numWorkItemsStarted                     0                       # number of work items this cpu started
system.cpu1.op_class_0::No_OpClass               1997      0.01%      0.01% # Class of committed instruction
system.cpu1.op_class_0::IntAlu                4979363     34.32%     34.33% # Class of committed instruction
system.cpu1.op_class_0::IntMult                    36      0.00%     34.33% # Class of committed instruction
system.cpu1.op_class_0::IntDiv                   1447      0.01%     34.34% # Class of committed instruction
system.cpu1.op_class_0::FloatAdd              1090392      7.52%     41.86% # Class of committed instruction
system.cpu1.op_class_0::FloatCmp                    0      0.00%     41.86% # Class of committed instruction
system.cpu1.op_class_0::FloatCvt                  112      0.00%     41.86% # Class of committed instruction
system.cpu1.op_class_0::FloatMult                   0      0.00%     41.86% # Class of committed instruction
system.cpu1.op_class_0::FloatMultAcc                0      0.00%     41.86% # Class of committed instruction
system.cpu1.op_class_0::FloatDiv                    0      0.00%     41.86% # Class of committed instruction
system.cpu1.op_class_0::FloatMisc                   0      0.00%     41.86% # Class of committed instruction
system.cpu1.op_class_0::FloatSqrt                   0      0.00%     41.86% # Class of committed instruction
system.cpu1.op_class_0::SimdAdd                  1140      0.01%     41.87% # Class of committed instruction
system.cpu1.op_class_0::SimdAddAcc                  0      0.00%     41.87% # Class of committed instruction
system.cpu1.op_class_0::SimdAlu                  1367      0.01%     41.88% # Class of committed instruction
system.cpu1.op_class_0::SimdCmp                    12      0.00%     41.88% # Class of committed instruction
system.cpu1.op_class_0::SimdCvt                  1866      0.01%     41.89% # Class of committed instruction
system.cpu1.op_class_0::SimdMisc                 1287      0.01%     41.90% # Class of committed instruction
system.cpu1.op_class_0::SimdMult                    0      0.00%     41.90% # Class of committed instruction
system.cpu1.op_class_0::SimdMultAcc                 0      0.00%     41.90% # Class of committed instruction
system.cpu1.op_class_0::SimdShift                 426      0.00%     41.90% # Class of committed instruction
system.cpu1.op_class_0::SimdShiftAcc                0      0.00%     41.90% # Class of committed instruction
system.cpu1.op_class_0::SimdDiv                     0      0.00%     41.90% # Class of committed instruction
system.cpu1.op_class_0::SimdSqrt                    0      0.00%     41.90% # Class of committed instruction
system.cpu1.op_class_0::SimdFloatAdd                0      0.00%     41.90% # Class of committed instruction
system.cpu1.op_class_0::SimdFloatAlu                0      0.00%     41.90% # Class of committed instruction
system.cpu1.op_class_0::SimdFloatCmp                0      0.00%     41.90% # Class of committed instruction
system.cpu1.op_class_0::SimdFloatCvt                2      0.00%     41.90% # Class of committed instruction
system.cpu1.op_class_0::SimdFloatDiv                0      0.00%     41.90% # Class of committed instruction
system.cpu1.op_class_0::SimdFloatMisc               0      0.00%     41.90% # Class of committed instruction
system.cpu1.op_class_0::SimdFloatMult               0      0.00%     41.90% # Class of committed instruction
system.cpu1.op_class_0::SimdFloatMultAcc            0      0.00%     41.90% # Class of committed instruction
system.cpu1.op_class_0::SimdFloatSqrt               0      0.00%     41.90% # Class of committed instruction
system.cpu1.op_class_0::SimdReduceAdd               0      0.00%     41.90% # Class of committed instruction
system.cpu1.op_class_0::SimdReduceAlu               0      0.00%     41.90% # Class of committed instruction
system.cpu1.op_class_0::SimdReduceCmp               0      0.00%     41.90% # Class of committed instruction
system.cpu1.op_class_0::SimdFloatReduceAdd            0      0.00%     41.90% # Class of committed instruction
system.cpu1.op_class_0::SimdFloatReduceCmp            0      0.00%     41.90% # Class of committed instruction
system.cpu1.op_class_0::SimdAes                     0      0.00%     41.90% # Class of committed instruction
system.cpu1.op_class_0::SimdAesMix                  0      0.00%     41.90% # Class of committed instruction
system.cpu1.op_class_0::SimdSha1Hash                0      0.00%     41.90% # Class of committed instruction
system.cpu1.op_class_0::SimdSha1Hash2               0      0.00%     41.90% # Class of committed instruction
system.cpu1.op_class_0::SimdSha256Hash              0      0.00%     41.90% # Class of committed instruction
system.cpu1.op_class_0::SimdSha256Hash2             0      0.00%     41.90% # Class of committed instruction
system.cpu1.op_class_0::SimdShaSigma2               0      0.00%     41.90% # Class of committed instruction
system.cpu1.op_class_0::SimdShaSigma3               0      0.00%     41.90% # Class of committed instruction
system.cpu1.op_class_0::SimdPredAlu                 0      0.00%     41.90% # Class of committed instruction
system.cpu1.op_class_0::MemRead                 42409      0.29%     42.19% # Class of committed instruction
system.cpu1.op_class_0::MemWrite               389289      2.68%     44.88% # Class of committed instruction
system.cpu1.op_class_0::FloatMemRead          1092474      7.53%     52.40% # Class of committed instruction
system.cpu1.op_class_0::FloatMemWrite         6905749     47.60%    100.00% # Class of committed instruction
system.cpu1.op_class_0::IprAccess                   0      0.00%    100.00% # Class of committed instruction
system.cpu1.op_class_0::InstPrefetch                0      0.00%    100.00% # Class of committed instruction
system.cpu1.op_class_0::total                14509368                       # Class of committed instruction
system.cpu1.tickCycles                       19970133                       # Number of cycles that the object actually ticked
system.cpu1.workload.numSyscalls                   40                       # Number of system calls
system.membus.snoop_filter.hit_multi_requests            0                       # Number of requests hitting in the snoop filter with multiple (>1) holders of the requested data.
system.membus.snoop_filter.hit_multi_snoops            0                       # Number of snoops hitting in the snoop filter with multiple (>1) holders of the requested data.
system.membus.snoop_filter.hit_single_requests      1826176                       # Number of requests hitting in the snoop filter with a single holder of the requested data.
system.membus.snoop_filter.hit_single_snoops            0                       # Number of snoops hitting in the snoop filter with a single holder of the requested data.
system.membus.snoop_filter.tot_requests       3653413                       # Total number of requests made to the snoop filter.
system.membus.snoop_filter.tot_snoops               0                       # Total number of snoops made to the snoop filter.
system.tol2bus.snoop_filter.hit_multi_requests            0                       # Number of requests hitting in the snoop filter with multiple (>1) holders of the requested data.
system.tol2bus.snoop_filter.hit_multi_snoops            0                       # Number of snoops hitting in the snoop filter with multiple (>1) holders of the requested data.
system.tol2bus.snoop_filter.hit_single_requests      1857999                       # Number of requests hitting in the snoop filter with a single holder of the requested data.
system.tol2bus.snoop_filter.hit_single_snoops         1353                       # Number of snoops hitting in the snoop filter with a single holder of the requested data.
system.tol2bus.snoop_filter.tot_requests      3716065                       # Total number of requests made to the snoop filter.
system.tol2bus.snoop_filter.tot_snoops           1353                       # Total number of snoops made to the snoop filter.
system.membus.trans_dist::ReadResp              12109                       # Transaction distribution
system.membus.trans_dist::WritebackDirty      1814390                       # Transaction distribution
system.membus.trans_dist::CleanEvict            11786                       # Transaction distribution
system.membus.trans_dist::ReadExReq           1815128                       # Transaction distribution
system.membus.trans_dist::ReadExResp          1815127                       # Transaction distribution
system.membus.trans_dist::ReadSharedReq         12109                       # Transaction distribution
system.membus.pkt_count_system.l2.mem_side::system.mem_ctrls.port      5480649                       # Packet count per connected master and slave (bytes)
system.membus.pkt_count_system.l2.mem_side::total      5480649                       # Packet count per connected master and slave (bytes)
system.membus.pkt_count::total                5480649                       # Packet count per connected master and slave (bytes)
system.membus.pkt_size_system.l2.mem_side::system.mem_ctrls.port    233064064                       # Cumulative packet size per connected master and slave (bytes)
system.membus.pkt_size_system.l2.mem_side::total    233064064                       # Cumulative packet size per connected master and slave (bytes)
system.membus.pkt_size::total               233064064                       # Cumulative packet size per connected master and slave (bytes)
system.membus.snoops                                0                       # Total snoops (count)
system.membus.snoopTraffic                          0                       # Total snoop traffic (bytes)
system.membus.snoop_fanout::samples           1827237                       # Request fanout histogram
system.membus.snoop_fanout::mean                    0                       # Request fanout histogram
system.membus.snoop_fanout::stdev                   0                       # Request fanout histogram
system.membus.snoop_fanout::underflows              0      0.00%      0.00% # Request fanout histogram
system.membus.snoop_fanout::0                 1827237    100.00%    100.00% # Request fanout histogram
system.membus.snoop_fanout::1                       0      0.00%    100.00% # Request fanout histogram
system.membus.snoop_fanout::overflows               0      0.00%    100.00% # Request fanout histogram
system.membus.snoop_fanout::min_value               0                       # Request fanout histogram
system.membus.snoop_fanout::max_value               0                       # Request fanout histogram
system.membus.snoop_fanout::total             1827237                       # Request fanout histogram
system.membus.reqLayer4.occupancy         11541644500                       # Layer occupancy (ticks)
system.membus.reqLayer4.utilization              18.8                       # Layer utilization (%)
system.membus.respLayer1.occupancy         9469643750                       # Layer occupancy (ticks)
system.membus.respLayer1.utilization             15.5                       # Layer utilization (%)
system.membus.power_state.pwrStateResidencyTicks::UNDEFINED  61235148500                       # Cumulative time (in ticks) in various power states
system.voltage_domain.voltage                       1                       # Voltage in Volts
system.clk_domain.clock                          1000                       # Clock period in ticks
system.cpu0.icache.demand_hits::.cpu0.inst      2294036                       # number of demand (read+write) hits
system.cpu0.icache.demand_hits::total         2294036                       # number of demand (read+write) hits
system.cpu0.icache.overall_hits::.cpu0.inst      2294036                       # number of overall hits
system.cpu0.icache.overall_hits::total        2294036                       # number of overall hits
system.cpu0.icache.demand_misses::.cpu0.inst        11052                       # number of demand (read+write) misses
system.cpu0.icache.demand_misses::total         11052                       # number of demand (read+write) misses
system.cpu0.icache.overall_misses::.cpu0.inst        11052                       # number of overall misses
system.cpu0.icache.overall_misses::total        11052                       # number of overall misses
system.cpu0.icache.demand_miss_latency::.cpu0.inst    379661500                       # number of demand (read+write) miss cycles
system.cpu0.icache.demand_miss_latency::total    379661500                       # number of demand (read+write) miss cycles
system.cpu0.icache.overall_miss_latency::.cpu0.inst    379661500                       # number of overall miss cycles
system.cpu0.icache.overall_miss_latency::total    379661500                       # number of overall miss cycles
system.cpu0.icache.demand_accesses::.cpu0.inst      2305088                       # number of demand (read+write) accesses
system.cpu0.icache.demand_accesses::total      2305088                       # number of demand (read+write) accesses
system.cpu0.icache.overall_accesses::.cpu0.inst      2305088                       # number of overall (read+write) accesses
system.cpu0.icache.overall_accesses::total      2305088                       # number of overall (read+write) accesses
system.cpu0.icache.demand_miss_rate::.cpu0.inst     0.004795                       # miss rate for demand accesses
system.cpu0.icache.demand_miss_rate::total     0.004795                       # miss rate for demand accesses
system.cpu0.icache.overall_miss_rate::.cpu0.inst     0.004795                       # miss rate for overall accesses
system.cpu0.icache.overall_miss_rate::total     0.004795                       # miss rate for overall accesses
system.cpu0.icache.demand_avg_miss_latency::.cpu0.inst 34352.289178                       # average overall miss latency
system.cpu0.icache.demand_avg_miss_latency::total 34352.289178                       # average overall miss latency
system.cpu0.icache.overall_avg_miss_latency::.cpu0.inst 34352.289178                       # average overall miss latency
system.cpu0.icache.overall_avg_miss_latency::total 34352.289178                       # average overall miss latency
system.cpu0.icache.blocked_cycles::no_mshrs            0                       # number of cycles access was blocked
system.cpu0.icache.blocked_cycles::no_targets            0                       # number of cycles access was blocked
system.cpu0.icache.blocked::no_mshrs                0                       # number of cycles access was blocked
system.cpu0.icache.blocked::no_targets              0                       # number of cycles access was blocked
system.cpu0.icache.avg_blocked_cycles::no_mshrs          nan                       # average number of cycles each access was blocked
system.cpu0.icache.avg_blocked_cycles::no_targets          nan                       # average number of cycles each access was blocked
system.cpu0.icache.writebacks::.writebacks        11036                       # number of writebacks
system.cpu0.icache.writebacks::total            11036                       # number of writebacks
system.cpu0.icache.demand_mshr_misses::.cpu0.inst        11052                       # number of demand (read+write) MSHR misses
system.cpu0.icache.demand_mshr_misses::total        11052                       # number of demand (read+write) MSHR misses
system.cpu0.icache.overall_mshr_misses::.cpu0.inst        11052                       # number of overall MSHR misses
system.cpu0.icache.overall_mshr_misses::total        11052                       # number of overall MSHR misses
system.cpu0.icache.demand_mshr_miss_latency::.cpu0.inst    368609500                       # number of demand (read+write) MSHR miss cycles
system.cpu0.icache.demand_mshr_miss_latency::total    368609500                       # number of demand (read+write) MSHR miss cycles
system.cpu0.icache.overall_mshr_miss_latency::.cpu0.inst    368609500                       # number of overall MSHR miss cycles
system.cpu0.icache.overall_mshr_miss_latency::total    368609500                       # number of overall MSHR miss cycles
system.cpu0.icache.demand_mshr_miss_rate::.cpu0.inst     0.004795                       # mshr miss rate for demand accesses
system.cpu0.icache.demand_mshr_miss_rate::total     0.004795                       # mshr miss rate for demand accesses
system.cpu0.icache.overall_mshr_miss_rate::.cpu0.inst     0.004795                       # mshr miss rate for overall accesses
system.cpu0.icache.overall_mshr_miss_rate::total     0.004795                       # mshr miss rate for overall accesses
system.cpu0.icache.demand_avg_mshr_miss_latency::.cpu0.inst 33352.289178                       # average overall mshr miss latency
system.cpu0.icache.demand_avg_mshr_miss_latency::total 33352.289178                       # average overall mshr miss latency
system.cpu0.icache.overall_avg_mshr_miss_latency::.cpu0.inst 33352.289178                       # average overall mshr miss latency
system.cpu0.icache.overall_avg_mshr_miss_latency::total 33352.289178                       # average overall mshr miss latency
system.cpu0.icache.replacements                 11036                       # number of replacements
system.cpu0.icache.ReadReq_hits::.cpu0.inst      2294036                       # number of ReadReq hits
system.cpu0.icache.ReadReq_hits::total        2294036                       # number of ReadReq hits
system.cpu0.icache.ReadReq_misses::.cpu0.inst        11052                       # number of ReadReq misses
system.cpu0.icache.ReadReq_misses::total        11052                       # number of ReadReq misses
system.cpu0.icache.ReadReq_miss_latency::.cpu0.inst    379661500                       # number of ReadReq miss cycles
system.cpu0.icache.ReadReq_miss_latency::total    379661500                       # number of ReadReq miss cycles
system.cpu0.icache.ReadReq_accesses::.cpu0.inst      2305088                       # number of ReadReq accesses(hits+misses)
system.cpu0.icache.ReadReq_accesses::total      2305088                       # number of ReadReq accesses(hits+misses)
system.cpu0.icache.ReadReq_miss_rate::.cpu0.inst     0.004795                       # miss rate for ReadReq accesses
system.cpu0.icache.ReadReq_miss_rate::total     0.004795                       # miss rate for ReadReq accesses
system.cpu0.icache.ReadReq_avg_miss_latency::.cpu0.inst 34352.289178                       # average ReadReq miss latency
system.cpu0.icache.ReadReq_avg_miss_latency::total 34352.289178                       # average ReadReq miss latency
system.cpu0.icache.ReadReq_mshr_misses::.cpu0.inst        11052                       # number of ReadReq MSHR misses
system.cpu0.icache.ReadReq_mshr_misses::total        11052                       # number of ReadReq MSHR misses
system.cpu0.icache.ReadReq_mshr_miss_latency::.cpu0.inst    368609500                       # number of ReadReq MSHR miss cycles
system.cpu0.icache.ReadReq_mshr_miss_latency::total    368609500                       # number of ReadReq MSHR miss cycles
system.cpu0.icache.ReadReq_mshr_miss_rate::.cpu0.inst     0.004795                       # mshr miss rate for ReadReq accesses
system.cpu0.icache.ReadReq_mshr_miss_rate::total     0.004795                       # mshr miss rate for ReadReq accesses
system.cpu0.icache.ReadReq_avg_mshr_miss_latency::.cpu0.inst 33352.289178                       # average ReadReq mshr miss latency
system.cpu0.icache.ReadReq_avg_mshr_miss_latency::total 33352.289178                       # average ReadReq mshr miss latency
system.cpu0.icache.power_state.pwrStateResidencyTicks::UNDEFINED  61235148500                       # Cumulative time (in ticks) in various power states
system.cpu0.icache.tags.tagsinuse           15.999777                       # Cycle average of tags in use
system.cpu0.icache.tags.total_refs            2305088                       # Total number of references to valid blocks.
system.cpu0.icache.tags.sampled_refs            11052                       # Sample count of references to valid blocks.
system.cpu0.icache.tags.avg_refs           208.567499                       # Average number of references to valid blocks.
system.cpu0.icache.tags.warmup_cycle            87500                       # Cycle when the warmup percentage was hit.
system.cpu0.icache.tags.occ_blocks::.cpu0.inst    15.999777                       # Average occupied blocks per requestor
system.cpu0.icache.tags.occ_percent::.cpu0.inst     0.999986                       # Average percentage of cache occupancy
system.cpu0.icache.tags.occ_percent::total     0.999986                       # Average percentage of cache occupancy
system.cpu0.icache.tags.occ_task_id_blocks::1024           16                       # Occupied blocks per task id
system.cpu0.icache.tags.age_task_id_blocks_1024::4           16                       # Occupied blocks per task id
system.cpu0.icache.tags.occ_task_id_percent::1024            1                       # Percentage of cache occupancy per task id
system.cpu0.icache.tags.tag_accesses         18451756                       # Number of tag accesses
system.cpu0.icache.tags.data_accesses        18451756                       # Number of data accesses
system.cpu0.icache.tags.power_state.pwrStateResidencyTicks::UNDEFINED  61235148500                       # Cumulative time (in ticks) in various power states
system.cpu0.dtb.walker.power_state.pwrStateResidencyTicks::UNDEFINED  61235148500                       # Cumulative time (in ticks) in various power states
system.cpu0.interrupts.clk_domain.clock          8000                       # Clock period in ticks
system.cpu0.itb_walker_cache.blocked_cycles::no_mshrs            0                       # number of cycles access was blocked
system.cpu0.itb_walker_cache.blocked_cycles::no_targets            0                       # number of cycles access was blocked
system.cpu0.itb_walker_cache.blocked::no_mshrs            0                       # number of cycles access was blocked
system.cpu0.itb_walker_cache.blocked::no_targets            0                       # number of cycles access was blocked
system.cpu0.itb_walker_cache.avg_blocked_cycles::no_mshrs          nan                       # average number of cycles each access was blocked
system.cpu0.itb_walker_cache.avg_blocked_cycles::no_targets          nan                       # average number of cycles each access was blocked
system.cpu0.itb_walker_cache.replacements            0                       # number of replacements
system.cpu0.itb_walker_cache.power_state.pwrStateResidencyTicks::UNDEFINED  61235148500                       # Cumulative time (in ticks) in various power states
system.cpu0.itb_walker_cache.tags.tagsinuse            0                       # Cycle average of tags in use
system.cpu0.itb_walker_cache.tags.total_refs            0                       # Total number of references to valid blocks.
system.cpu0.itb_walker_cache.tags.sampled_refs            0                       # Sample count of references to valid blocks.
system.cpu0.itb_walker_cache.tags.avg_refs          nan                       # Average number of references to valid blocks.
system.cpu0.itb_walker_cache.tags.warmup_cycle            0                       # Cycle when the warmup percentage was hit.
system.cpu0.itb_walker_cache.tags.tag_accesses            0                       # Number of tag accesses
system.cpu0.itb_walker_cache.tags.data_accesses            0                       # Number of data accesses
system.cpu0.itb_walker_cache.tags.power_state.pwrStateResidencyTicks::UNDEFINED  61235148500                       # Cumulative time (in ticks) in various power states
system.cpu0.dtb_walker_cache.blocked_cycles::no_mshrs            0                       # number of cycles access was blocked
system.cpu0.dtb_walker_cache.blocked_cycles::no_targets            0                       # number of cycles access was blocked
system.cpu0.dtb_walker_cache.blocked::no_mshrs            0                       # number of cycles access was blocked
system.cpu0.dtb_walker_cache.blocked::no_targets            0                       # number of cycles access was blocked
system.cpu0.dtb_walker_cache.avg_blocked_cycles::no_mshrs          nan                       # average number of cycles each access was blocked
system.cpu0.dtb_walker_cache.avg_blocked_cycles::no_targets          nan                       # average number of cycles each access was blocked
system.cpu0.dtb_walker_cache.replacements            0                       # number of replacements
system.cpu0.dtb_walker_cache.power_state.pwrStateResidencyTicks::UNDEFINED  61235148500                       # Cumulative time (in ticks) in various power states
system.cpu0.dtb_walker_cache.tags.tagsinuse            0                       # Cycle average of tags in use
system.cpu0.dtb_walker_cache.tags.total_refs            0                       # Total number of references to valid blocks.
system.cpu0.dtb_walker_cache.tags.sampled_refs            0                       # Sample count of references to valid blocks.
system.cpu0.dtb_walker_cache.tags.avg_refs          nan                       # Average number of references to valid blocks.
system.cpu0.dtb_walker_cache.tags.warmup_cycle            0                       # Cycle when the warmup percentage was hit.
system.cpu0.dtb_walker_cache.tags.tag_accesses            0                       # Number of tag accesses
system.cpu0.dtb_walker_cache.tags.data_accesses            0                       # Number of data accesses
system.cpu0.dtb_walker_cache.tags.power_state.pwrStateResidencyTicks::UNDEFINED  61235148500                       # Cumulative time (in ticks) in various power states
system.cpu0.dcache.demand_hits::.cpu0.data      7293954                       # number of demand (read+write) hits
system.cpu0.dcache.demand_hits::total         7293954                       # number of demand (read+write) hits
system.cpu0.dcache.overall_hits::.cpu0.data      7293954                       # number of overall hits
system.cpu0.dcache.overall_hits::total        7293954                       # number of overall hits
system.cpu0.dcache.demand_misses::.cpu0.data      1460530                       # number of demand (read+write) misses
system.cpu0.dcache.demand_misses::total       1460530                       # number of demand (read+write) misses
system.cpu0.dcache.overall_misses::.cpu0.data      1460530                       # number of overall misses
system.cpu0.dcache.overall_misses::total      1460530                       # number of overall misses
system.cpu0.dcache.demand_miss_latency::.cpu0.data 105952455500                       # number of demand (read+write) miss cycles
system.cpu0.dcache.demand_miss_latency::total 105952455500                       # number of demand (read+write) miss cycles
system.cpu0.dcache.overall_miss_latency::.cpu0.data 105952455500                       # number of overall miss cycles
system.cpu0.dcache.overall_miss_latency::total 105952455500                       # number of overall miss cycles
system.cpu0.dcache.demand_accesses::.cpu0.data      8754484                       # number of demand (read+write) accesses
system.cpu0.dcache.demand_accesses::total      8754484                       # number of demand (read+write) accesses
system.cpu0.dcache.overall_accesses::.cpu0.data      8754484                       # number of overall (read+write) accesses
system.cpu0.dcache.overall_accesses::total      8754484                       # number of overall (read+write) accesses
system.cpu0.dcache.demand_miss_rate::.cpu0.data     0.166832                       # miss rate for demand accesses
system.cpu0.dcache.demand_miss_rate::total     0.166832                       # miss rate for demand accesses
system.cpu0.dcache.overall_miss_rate::.cpu0.data     0.166832                       # miss rate for overall accesses
system.cpu0.dcache.overall_miss_rate::total     0.166832                       # miss rate for overall accesses
system.cpu0.dcache.demand_avg_miss_latency::.cpu0.data 72543.840592                       # average overall miss latency
system.cpu0.dcache.demand_avg_miss_latency::total 72543.840592                       # average overall miss latency
system.cpu0.dcache.overall_avg_miss_latency::.cpu0.data 72543.840592                       # average overall miss latency
system.cpu0.dcache.overall_avg_miss_latency::total 72543.840592                       # average overall miss latency
system.cpu0.dcache.blocked_cycles::no_mshrs            0                       # number of cycles access was blocked
system.cpu0.dcache.blocked_cycles::no_targets            0                       # number of cycles access was blocked
system.cpu0.dcache.blocked::no_mshrs                0                       # number of cycles access was blocked
system.cpu0.dcache.blocked::no_targets              0                       # number of cycles access was blocked
system.cpu0.dcache.avg_blocked_cycles::no_mshrs          nan                       # average number of cycles each access was blocked
system.cpu0.dcache.avg_blocked_cycles::no_targets          nan                       # average number of cycles each access was blocked
system.cpu0.dcache.writebacks::.writebacks       909727                       # number of writebacks
system.cpu0.dcache.writebacks::total           909727                       # number of writebacks
system.cpu0.dcache.demand_mshr_hits::.cpu0.data       544215                       # number of demand (read+write) MSHR hits
system.cpu0.dcache.demand_mshr_hits::total       544215                       # number of demand (read+write) MSHR hits
system.cpu0.dcache.overall_mshr_hits::.cpu0.data       544215                       # number of overall MSHR hits
system.cpu0.dcache.overall_mshr_hits::total       544215                       # number of overall MSHR hits
system.cpu0.dcache.demand_mshr_misses::.cpu0.data       916315                       # number of demand (read+write) MSHR misses
system.cpu0.dcache.demand_mshr_misses::total       916315                       # number of demand (read+write) MSHR misses
system.cpu0.dcache.overall_mshr_misses::.cpu0.data       916315                       # number of overall MSHR misses
system.cpu0.dcache.overall_mshr_misses::total       916315                       # number of overall MSHR misses
system.cpu0.dcache.demand_mshr_miss_latency::.cpu0.data  83811657500                       # number of demand (read+write) MSHR miss cycles
system.cpu0.dcache.demand_mshr_miss_latency::total  83811657500                       # number of demand (read+write) MSHR miss cycles
system.cpu0.dcache.overall_mshr_miss_latency::.cpu0.data  83811657500                       # number of overall MSHR miss cycles
system.cpu0.dcache.overall_mshr_miss_latency::total  83811657500                       # number of overall MSHR miss cycles
system.cpu0.dcache.demand_mshr_miss_rate::.cpu0.data     0.104668                       # mshr miss rate for demand accesses
system.cpu0.dcache.demand_mshr_miss_rate::total     0.104668                       # mshr miss rate for demand accesses
system.cpu0.dcache.overall_mshr_miss_rate::.cpu0.data     0.104668                       # mshr miss rate for overall accesses
system.cpu0.dcache.overall_mshr_miss_rate::total     0.104668                       # mshr miss rate for overall accesses
system.cpu0.dcache.demand_avg_mshr_miss_latency::.cpu0.data 91465.988770                       # average overall mshr miss latency
system.cpu0.dcache.demand_avg_mshr_miss_latency::total 91465.988770                       # average overall mshr miss latency
system.cpu0.dcache.overall_avg_mshr_miss_latency::.cpu0.data 91465.988770                       # average overall mshr miss latency
system.cpu0.dcache.overall_avg_mshr_miss_latency::total 91465.988770                       # average overall mshr miss latency
system.cpu0.dcache.replacements                916297                       # number of replacements
system.cpu0.dcache.ReadReq_hits::.cpu0.data      1490407                       # number of ReadReq hits
system.cpu0.dcache.ReadReq_hits::total        1490407                       # number of ReadReq hits
system.cpu0.dcache.ReadReq_misses::.cpu0.data         9378                       # number of ReadReq misses
system.cpu0.dcache.ReadReq_misses::total         9378                       # number of ReadReq misses
system.cpu0.dcache.ReadReq_miss_latency::.cpu0.data    462082000                       # number of ReadReq miss cycles
system.cpu0.dcache.ReadReq_miss_latency::total    462082000                       # number of ReadReq miss cycles
system.cpu0.dcache.ReadReq_accesses::.cpu0.data      1499785                       # number of ReadReq accesses(hits+misses)
system.cpu0.dcache.ReadReq_accesses::total      1499785                       # number of ReadReq accesses(hits+misses)
system.cpu0.dcache.ReadReq_miss_rate::.cpu0.data     0.006253                       # miss rate for ReadReq accesses
system.cpu0.dcache.ReadReq_miss_rate::total     0.006253                       # miss rate for ReadReq accesses
system.cpu0.dcache.ReadReq_avg_miss_latency::.cpu0.data 49272.979313                       # average ReadReq miss latency
system.cpu0.dcache.ReadReq_avg_miss_latency::total 49272.979313                       # average ReadReq miss latency
system.cpu0.dcache.ReadReq_mshr_hits::.cpu0.data          337                       # number of ReadReq MSHR hits
system.cpu0.dcache.ReadReq_mshr_hits::total          337                       # number of ReadReq MSHR hits
system.cpu0.dcache.ReadReq_mshr_misses::.cpu0.data         9041                       # number of ReadReq MSHR misses
system.cpu0.dcache.ReadReq_mshr_misses::total         9041                       # number of ReadReq MSHR misses
system.cpu0.dcache.ReadReq_mshr_miss_latency::.cpu0.data    436401500                       # number of ReadReq MSHR miss cycles
system.cpu0.dcache.ReadReq_mshr_miss_latency::total    436401500                       # number of ReadReq MSHR miss cycles
system.cpu0.dcache.ReadReq_mshr_miss_rate::.cpu0.data     0.006028                       # mshr miss rate for ReadReq accesses
system.cpu0.dcache.ReadReq_mshr_miss_rate::total     0.006028                       # mshr miss rate for ReadReq accesses
system.cpu0.dcache.ReadReq_avg_mshr_miss_latency::.cpu0.data 48269.162703                       # average ReadReq mshr miss latency
system.cpu0.dcache.ReadReq_avg_mshr_miss_latency::total 48269.162703                       # average ReadReq mshr miss latency
system.cpu0.dcache.WriteReq_hits::.cpu0.data      5803547                       # number of WriteReq hits
system.cpu0.dcache.WriteReq_hits::total       5803547                       # number of WriteReq hits
system.cpu0.dcache.WriteReq_misses::.cpu0.data      1451152                       # number of WriteReq misses
system.cpu0.dcache.WriteReq_misses::total      1451152                       # number of WriteReq misses
system.cpu0.dcache.WriteReq_miss_latency::.cpu0.data 105490373500                       # number of WriteReq miss cycles
system.cpu0.dcache.WriteReq_miss_latency::total 105490373500                       # number of WriteReq miss cycles
system.cpu0.dcache.WriteReq_accesses::.cpu0.data      7254699                       # number of WriteReq accesses(hits+misses)
system.cpu0.dcache.WriteReq_accesses::total      7254699                       # number of WriteReq accesses(hits+misses)
system.cpu0.dcache.WriteReq_miss_rate::.cpu0.data     0.200029                       # miss rate for WriteReq accesses
system.cpu0.dcache.WriteReq_miss_rate::total     0.200029                       # miss rate for WriteReq accesses
system.cpu0.dcache.WriteReq_avg_miss_latency::.cpu0.data 72694.227414                       # average WriteReq miss latency
system.cpu0.dcache.WriteReq_avg_miss_latency::total 72694.227414                       # average WriteReq miss latency
system.cpu0.dcache.WriteReq_mshr_hits::.cpu0.data       543878                       # number of WriteReq MSHR hits
system.cpu0.dcache.WriteReq_mshr_hits::total       543878                       # number of WriteReq MSHR hits
system.cpu0.dcache.WriteReq_mshr_misses::.cpu0.data       907274                       # number of WriteReq MSHR misses
system.cpu0.dcache.WriteReq_mshr_misses::total       907274                       # number of WriteReq MSHR misses
system.cpu0.dcache.WriteReq_mshr_miss_latency::.cpu0.data  83375256000                       # number of WriteReq MSHR miss cycles
system.cpu0.dcache.WriteReq_mshr_miss_latency::total  83375256000                       # number of WriteReq MSHR miss cycles
system.cpu0.dcache.WriteReq_mshr_miss_rate::.cpu0.data     0.125060                       # mshr miss rate for WriteReq accesses
system.cpu0.dcache.WriteReq_mshr_miss_rate::total     0.125060                       # mshr miss rate for WriteReq accesses
system.cpu0.dcache.WriteReq_avg_mshr_miss_latency::.cpu0.data 91896.445837                       # average WriteReq mshr miss latency
system.cpu0.dcache.WriteReq_avg_mshr_miss_latency::total 91896.445837                       # average WriteReq mshr miss latency
system.cpu0.dcache.power_state.pwrStateResidencyTicks::UNDEFINED  61235148500                       # Cumulative time (in ticks) in various power states
system.cpu0.dcache.tags.tagsinuse           15.999791                       # Cycle average of tags in use
system.cpu0.dcache.tags.total_refs            8210267                       # Total number of references to valid blocks.
system.cpu0.dcache.tags.sampled_refs           916313                       # Sample count of references to valid blocks.
system.cpu0.dcache.tags.avg_refs             8.960112                       # Average number of references to valid blocks.
system.cpu0.dcache.tags.warmup_cycle           178500                       # Cycle when the warmup percentage was hit.
system.cpu0.dcache.tags.occ_blocks::.cpu0.data    15.999791                       # Average occupied blocks per requestor
system.cpu0.dcache.tags.occ_percent::.cpu0.data     0.999987                       # Average percentage of cache occupancy
system.cpu0.dcache.tags.occ_percent::total     0.999987                       # Average percentage of cache occupancy
system.cpu0.dcache.tags.occ_task_id_blocks::1024           16                       # Occupied blocks per task id
system.cpu0.dcache.tags.age_task_id_blocks_1024::0           14                       # Occupied blocks per task id
system.cpu0.dcache.tags.age_task_id_blocks_1024::4            2                       # Occupied blocks per task id
system.cpu0.dcache.tags.occ_task_id_percent::1024            1                       # Percentage of cache occupancy per task id
system.cpu0.dcache.tags.tag_accesses         70952185                       # Number of tag accesses
system.cpu0.dcache.tags.data_accesses        70952185                       # Number of data accesses
system.cpu0.dcache.tags.power_state.pwrStateResidencyTicks::UNDEFINED  61235148500                       # Cumulative time (in ticks) in various power states
system.cpu0.power_state.pwrStateResidencyTicks::ON  61235148500                       # Cumulative time (in ticks) in various power states
system.cpu0.itb.walker.power_state.pwrStateResidencyTicks::UNDEFINED  61235148500                       # Cumulative time (in ticks) in various power states
system.cpu1.icache.demand_hits::.cpu1.inst      2302148                       # number of demand (read+write) hits
system.cpu1.icache.demand_hits::total         2302148                       # number of demand (read+write) hits
system.cpu1.icache.overall_hits::.cpu1.inst      2302148                       # number of overall hits
system.cpu1.icache.overall_hits::total        2302148                       # number of overall hits
system.cpu1.icache.demand_misses::.cpu1.inst        11118                       # number of demand (read+write) misses
system.cpu1.icache.demand_misses::total         11118                       # number of demand (read+write) misses
system.cpu1.icache.overall_misses::.cpu1.inst        11118                       # number of overall misses
system.cpu1.icache.overall_misses::total        11118                       # number of overall misses
system.cpu1.icache.demand_miss_latency::.cpu1.inst    274692500                       # number of demand (read+write) miss cycles
system.cpu1.icache.demand_miss_latency::total    274692500                       # number of demand (read+write) miss cycles
system.cpu1.icache.overall_miss_latency::.cpu1.inst    274692500                       # number of overall miss cycles
system.cpu1.icache.overall_miss_latency::total    274692500                       # number of overall miss cycles
system.cpu1.icache.demand_accesses::.cpu1.inst      2313266                       # number of demand (read+write) accesses
system.cpu1.icache.demand_accesses::total      2313266                       # number of demand (read+write) accesses
system.cpu1.icache.overall_accesses::.cpu1.inst      2313266                       # number of overall (read+write) accesses
system.cpu1.icache.overall_accesses::total      2313266                       # number of overall (read+write) accesses
system.cpu1.icache.demand_miss_rate::.cpu1.inst     0.004806                       # miss rate for demand accesses
system.cpu1.icache.demand_miss_rate::total     0.004806                       # miss rate for demand accesses
system.cpu1.icache.overall_miss_rate::.cpu1.inst     0.004806                       # miss rate for overall accesses
system.cpu1.icache.overall_miss_rate::total     0.004806                       # miss rate for overall accesses
system.cpu1.icache.demand_avg_miss_latency::.cpu1.inst 24707.006656                       # average overall miss latency
system.cpu1.icache.demand_avg_miss_latency::total 24707.006656                       # average overall miss latency
system.cpu1.icache.overall_avg_miss_latency::.cpu1.inst 24707.006656                       # average overall miss latency
system.cpu1.icache.overall_avg_miss_latency::total 24707.006656                       # average overall miss latency
system.cpu1.icache.blocked_cycles::no_mshrs            0                       # number of cycles access was blocked
system.cpu1.icache.blocked_cycles::no_targets            0                       # number of cycles access was blocked
system.cpu1.icache.blocked::no_mshrs                0                       # number of cycles access was blocked
system.cpu1.icache.blocked::no_targets              0                       # number of cycles access was blocked
system.cpu1.icache.avg_blocked_cycles::no_mshrs          nan                       # average number of cycles each access was blocked
system.cpu1.icache.avg_blocked_cycles::no_targets          nan                       # average number of cycles each access was blocked
system.cpu1.icache.writebacks::.writebacks        11102                       # number of writebacks
system.cpu1.icache.writebacks::total            11102                       # number of writebacks
system.cpu1.icache.demand_mshr_misses::.cpu1.inst        11118                       # number of demand (read+write) MSHR misses
system.cpu1.icache.demand_mshr_misses::total        11118                       # number of demand (read+write) MSHR misses
system.cpu1.icache.overall_mshr_misses::.cpu1.inst        11118                       # number of overall MSHR misses
system.cpu1.icache.overall_mshr_misses::total        11118                       # number of overall MSHR misses
system.cpu1.icache.demand_mshr_miss_latency::.cpu1.inst    263574500                       # number of demand (read+write) MSHR miss cycles
system.cpu1.icache.demand_mshr_miss_latency::total    263574500                       # number of demand (read+write) MSHR miss cycles
system.cpu1.icache.overall_mshr_miss_latency::.cpu1.inst    263574500                       # number of overall MSHR miss cycles
system.cpu1.icache.overall_mshr_miss_latency::total    263574500                       # number of overall MSHR miss cycles
system.cpu1.icache.demand_mshr_miss_rate::.cpu1.inst     0.004806                       # mshr miss rate for demand accesses
system.cpu1.icache.demand_mshr_miss_rate::total     0.004806                       # mshr miss rate for demand accesses
system.cpu1.icache.overall_mshr_miss_rate::.cpu1.inst     0.004806                       # mshr miss rate for overall accesses
system.cpu1.icache.overall_mshr_miss_rate::total     0.004806                       # mshr miss rate for overall accesses
system.cpu1.icache.demand_avg_mshr_miss_latency::.cpu1.inst 23707.006656                       # average overall mshr miss latency
system.cpu1.icache.demand_avg_mshr_miss_latency::total 23707.006656                       # average overall mshr miss latency
system.cpu1.icache.overall_avg_mshr_miss_latency::.cpu1.inst 23707.006656                       # average overall mshr miss latency
system.cpu1.icache.overall_avg_mshr_miss_latency::total 23707.006656                       # average overall mshr miss latency
system.cpu1.icache.replacements                 11102                       # number of replacements
system.cpu1.icache.ReadReq_hits::.cpu1.inst      2302148                       # number of ReadReq hits
system.cpu1.icache.ReadReq_hits::total        2302148                       # number of ReadReq hits
system.cpu1.icache.ReadReq_misses::.cpu1.inst        11118                       # number of ReadReq misses
system.cpu1.icache.ReadReq_misses::total        11118                       # number of ReadReq misses
system.cpu1.icache.ReadReq_miss_latency::.cpu1.inst    274692500                       # number of ReadReq miss cycles
system.cpu1.icache.ReadReq_miss_latency::total    274692500                       # number of ReadReq miss cycles
system.cpu1.icache.ReadReq_accesses::.cpu1.inst      2313266                       # number of ReadReq accesses(hits+misses)
system.cpu1.icache.ReadReq_accesses::total      2313266                       # number of ReadReq accesses(hits+misses)
system.cpu1.icache.ReadReq_miss_rate::.cpu1.inst     0.004806                       # miss rate for ReadReq accesses
system.cpu1.icache.ReadReq_miss_rate::total     0.004806                       # miss rate for ReadReq accesses
system.cpu1.icache.ReadReq_avg_miss_latency::.cpu1.inst 24707.006656                       # average ReadReq miss latency
system.cpu1.icache.ReadReq_avg_miss_latency::total 24707.006656                       # average ReadReq miss latency
system.cpu1.icache.ReadReq_mshr_misses::.cpu1.inst        11118                       # number of ReadReq MSHR misses
system.cpu1.icache.ReadReq_mshr_misses::total        11118                       # number of ReadReq MSHR misses
system.cpu1.icache.ReadReq_mshr_miss_latency::.cpu1.inst    263574500                       # number of ReadReq MSHR miss cycles
system.cpu1.icache.ReadReq_mshr_miss_latency::total    263574500                       # number of ReadReq MSHR miss cycles
system.cpu1.icache.ReadReq_mshr_miss_rate::.cpu1.inst     0.004806                       # mshr miss rate for ReadReq accesses
system.cpu1.icache.ReadReq_mshr_miss_rate::total     0.004806                       # mshr miss rate for ReadReq accesses
system.cpu1.icache.ReadReq_avg_mshr_miss_latency::.cpu1.inst 23707.006656                       # average ReadReq mshr miss latency
system.cpu1.icache.ReadReq_avg_mshr_miss_latency::total 23707.006656                       # average ReadReq mshr miss latency
system.cpu1.icache.power_state.pwrStateResidencyTicks::UNDEFINED  61235148500                       # Cumulative time (in ticks) in various power states
system.cpu1.icache.tags.tagsinuse           15.999767                       # Cycle average of tags in use
system.cpu1.icache.tags.total_refs            2313266                       # Total number of references to valid blocks.
system.cpu1.icache.tags.sampled_refs            11118                       # Sample count of references to valid blocks.
system.cpu1.icache.tags.avg_refs           208.064940                       # Average number of references to valid blocks.
system.cpu1.icache.tags.warmup_cycle            94500                       # Cycle when the warmup percentage was hit.
system.cpu1.icache.tags.occ_blocks::.cpu1.inst    15.999767                       # Average occupied blocks per requestor
system.cpu1.icache.tags.occ_percent::.cpu1.inst     0.999985                       # Average percentage of cache occupancy
system.cpu1.icache.tags.occ_percent::total     0.999985                       # Average percentage of cache occupancy
system.cpu1.icache.tags.occ_task_id_blocks::1024           16                       # Occupied blocks per task id
system.cpu1.icache.tags.age_task_id_blocks_1024::4           16                       # Occupied blocks per task id
system.cpu1.icache.tags.occ_task_id_percent::1024            1                       # Percentage of cache occupancy per task id
system.cpu1.icache.tags.tag_accesses         18517246                       # Number of tag accesses
system.cpu1.icache.tags.data_accesses        18517246                       # Number of data accesses
system.cpu1.icache.tags.power_state.pwrStateResidencyTicks::UNDEFINED  61235148500                       # Cumulative time (in ticks) in various power states
system.cpu1.dtb.walker.power_state.pwrStateResidencyTicks::UNDEFINED  61235148500                       # Cumulative time (in ticks) in various power states
system.cpu1.interrupts.clk_domain.clock          8000                       # Clock period in ticks
system.cpu1.itb_walker_cache.blocked_cycles::no_mshrs            0                       # number of cycles access was blocked
system.cpu1.itb_walker_cache.blocked_cycles::no_targets            0                       # number of cycles access was blocked
system.cpu1.itb_walker_cache.blocked::no_mshrs            0                       # number of cycles access was blocked
system.cpu1.itb_walker_cache.blocked::no_targets            0                       # number of cycles access was blocked
system.cpu1.itb_walker_cache.avg_blocked_cycles::no_mshrs          nan                       # average number of cycles each access was blocked
system.cpu1.itb_walker_cache.avg_blocked_cycles::no_targets          nan                       # average number of cycles each access was blocked
system.cpu1.itb_walker_cache.replacements            0                       # number of replacements
system.cpu1.itb_walker_cache.power_state.pwrStateResidencyTicks::UNDEFINED  61235148500                       # Cumulative time (in ticks) in various power states
system.cpu1.itb_walker_cache.tags.tagsinuse            0                       # Cycle average of tags in use
system.cpu1.itb_walker_cache.tags.total_refs            0                       # Total number of references to valid blocks.
system.cpu1.itb_walker_cache.tags.sampled_refs            0                       # Sample count of references to valid blocks.
system.cpu1.itb_walker_cache.tags.avg_refs          nan                       # Average number of references to valid blocks.
system.cpu1.itb_walker_cache.tags.warmup_cycle            0                       # Cycle when the warmup percentage was hit.
system.cpu1.itb_walker_cache.tags.tag_accesses            0                       # Number of tag accesses
system.cpu1.itb_walker_cache.tags.data_accesses            0                       # Number of data accesses
system.cpu1.itb_walker_cache.tags.power_state.pwrStateResidencyTicks::UNDEFINED  61235148500                       # Cumulative time (in ticks) in various power states
system.cpu1.dtb_walker_cache.blocked_cycles::no_mshrs            0                       # number of cycles access was blocked
system.cpu1.dtb_walker_cache.blocked_cycles::no_targets            0                       # number of cycles access was blocked
system.cpu1.dtb_walker_cache.blocked::no_mshrs            0                       # number of cycles access was blocked
system.cpu1.dtb_walker_cache.blocked::no_targets            0                       # number of cycles access was blocked
system.cpu1.dtb_walker_cache.avg_blocked_cycles::no_mshrs          nan                       # average number of cycles each access was blocked
system.cpu1.dtb_walker_cache.avg_blocked_cycles::no_targets          nan                       # average number of cycles each access was blocked
system.cpu1.dtb_walker_cache.replacements            0                       # number of replacements
system.cpu1.dtb_walker_cache.power_state.pwrStateResidencyTicks::UNDEFINED  61235148500                       # Cumulative time (in ticks) in various power states
system.cpu1.dtb_walker_cache.tags.tagsinuse            0                       # Cycle average of tags in use
system.cpu1.dtb_walker_cache.tags.total_refs            0                       # Total number of references to valid blocks.
system.cpu1.dtb_walker_cache.tags.sampled_refs            0                       # Sample count of references to valid blocks.
system.cpu1.dtb_walker_cache.tags.avg_refs          nan                       # Average number of references to valid blocks.
system.cpu1.dtb_walker_cache.tags.warmup_cycle            0                       # Cycle when the warmup percentage was hit.
system.cpu1.dtb_walker_cache.tags.tag_accesses            0                       # Number of tag accesses
system.cpu1.dtb_walker_cache.tags.data_accesses            0                       # Number of data accesses
system.cpu1.dtb_walker_cache.tags.power_state.pwrStateResidencyTicks::UNDEFINED  61235148500                       # Cumulative time (in ticks) in various power states
system.cpu1.dcache.demand_hits::.cpu1.data      7320148                       # number of demand (read+write) hits
system.cpu1.dcache.demand_hits::total         7320148                       # number of demand (read+write) hits
system.cpu1.dcache.overall_hits::.cpu1.data      7320148                       # number of overall hits
system.cpu1.dcache.overall_hits::total        7320148                       # number of overall hits
system.cpu1.dcache.demand_misses::.cpu1.data      1465693                       # number of demand (read+write) misses
system.cpu1.dcache.demand_misses::total       1465693                       # number of demand (read+write) misses
system.cpu1.dcache.overall_misses::.cpu1.data      1465693                       # number of overall misses
system.cpu1.dcache.overall_misses::total      1465693                       # number of overall misses
system.cpu1.dcache.demand_miss_latency::.cpu1.data 106160987000                       # number of demand (read+write) miss cycles
system.cpu1.dcache.demand_miss_latency::total 106160987000                       # number of demand (read+write) miss cycles
system.cpu1.dcache.overall_miss_latency::.cpu1.data 106160987000                       # number of overall miss cycles
system.cpu1.dcache.overall_miss_latency::total 106160987000                       # number of overall miss cycles
system.cpu1.dcache.demand_accesses::.cpu1.data      8785841                       # number of demand (read+write) accesses
system.cpu1.dcache.demand_accesses::total      8785841                       # number of demand (read+write) accesses
system.cpu1.dcache.overall_accesses::.cpu1.data      8785841                       # number of overall (read+write) accesses
system.cpu1.dcache.overall_accesses::total      8785841                       # number of overall (read+write) accesses
system.cpu1.dcache.demand_miss_rate::.cpu1.data     0.166824                       # miss rate for demand accesses
system.cpu1.dcache.demand_miss_rate::total     0.166824                       # miss rate for demand accesses
system.cpu1.dcache.overall_miss_rate::.cpu1.data     0.166824                       # miss rate for overall accesses
system.cpu1.dcache.overall_miss_rate::total     0.166824                       # miss rate for overall accesses
system.cpu1.dcache.demand_avg_miss_latency::.cpu1.data 72430.575161                       # average overall miss latency
system.cpu1.dcache.demand_avg_miss_latency::total 72430.575161                       # average overall miss latency
system.cpu1.dcache.overall_avg_miss_latency::.cpu1.data 72430.575161                       # average overall miss latency
system.cpu1.dcache.overall_avg_miss_latency::total 72430.575161                       # average overall miss latency
system.cpu1.dcache.blocked_cycles::no_mshrs            0                       # number of cycles access was blocked
system.cpu1.dcache.blocked_cycles::no_targets            0                       # number of cycles access was blocked
system.cpu1.dcache.blocked::no_mshrs                0                       # number of cycles access was blocked
system.cpu1.dcache.blocked::no_targets              0                       # number of cycles access was blocked
system.cpu1.dcache.avg_blocked_cycles::no_mshrs          nan                       # average number of cycles each access was blocked
system.cpu1.dcache.avg_blocked_cycles::no_targets          nan                       # average number of cycles each access was blocked
system.cpu1.dcache.writebacks::.writebacks       912986                       # number of writebacks
system.cpu1.dcache.writebacks::total           912986                       # number of writebacks
system.cpu1.dcache.demand_mshr_hits::.cpu1.data       546112                       # number of demand (read+write) MSHR hits
system.cpu1.dcache.demand_mshr_hits::total       546112                       # number of demand (read+write) MSHR hits
system.cpu1.dcache.overall_mshr_hits::.cpu1.data       546112                       # number of overall MSHR hits
system.cpu1.dcache.overall_mshr_hits::total       546112                       # number of overall MSHR hits
system.cpu1.dcache.demand_mshr_misses::.cpu1.data       919581                       # number of demand (read+write) MSHR misses
system.cpu1.dcache.demand_mshr_misses::total       919581                       # number of demand (read+write) MSHR misses
system.cpu1.dcache.overall_mshr_misses::.cpu1.data       919581                       # number of overall MSHR misses
system.cpu1.dcache.overall_mshr_misses::total       919581                       # number of overall MSHR misses
system.cpu1.dcache.demand_mshr_miss_latency::.cpu1.data  83960198000                       # number of demand (read+write) MSHR miss cycles
system.cpu1.dcache.demand_mshr_miss_latency::total  83960198000                       # number of demand (read+write) MSHR miss cycles
system.cpu1.dcache.overall_mshr_miss_latency::.cpu1.data  83960198000                       # number of overall MSHR miss cycles
system.cpu1.dcache.overall_mshr_miss_latency::total  83960198000                       # number of overall MSHR miss cycles
system.cpu1.dcache.demand_mshr_miss_rate::.cpu1.data     0.104666                       # mshr miss rate for demand accesses
system.cpu1.dcache.demand_mshr_miss_rate::total     0.104666                       # mshr miss rate for demand accesses
system.cpu1.dcache.overall_mshr_miss_rate::.cpu1.data     0.104666                       # mshr miss rate for overall accesses
system.cpu1.dcache.overall_mshr_miss_rate::total     0.104666                       # mshr miss rate for overall accesses
system.cpu1.dcache.demand_avg_mshr_miss_latency::.cpu1.data 91302.667193                       # average overall mshr miss latency
system.cpu1.dcache.demand_avg_mshr_miss_latency::total 91302.667193                       # average overall mshr miss latency
system.cpu1.dcache.overall_avg_mshr_miss_latency::.cpu1.data 91302.667193                       # average overall mshr miss latency
system.cpu1.dcache.overall_avg_mshr_miss_latency::total 91302.667193                       # average overall mshr miss latency
system.cpu1.dcache.replacements                919564                       # number of replacements
system.cpu1.dcache.ReadReq_hits::.cpu1.data      1495634                       # number of ReadReq hits
system.cpu1.dcache.ReadReq_hits::total        1495634                       # number of ReadReq hits
system.cpu1.dcache.ReadReq_misses::.cpu1.data         9375                       # number of ReadReq misses
system.cpu1.dcache.ReadReq_misses::total         9375                       # number of ReadReq misses
system.cpu1.dcache.ReadReq_miss_latency::.cpu1.data    333177000                       # number of ReadReq miss cycles
system.cpu1.dcache.ReadReq_miss_latency::total    333177000                       # number of ReadReq miss cycles
system.cpu1.dcache.ReadReq_accesses::.cpu1.data      1505009                       # number of ReadReq accesses(hits+misses)
system.cpu1.dcache.ReadReq_accesses::total      1505009                       # number of ReadReq accesses(hits+misses)
system.cpu1.dcache.ReadReq_miss_rate::.cpu1.data     0.006229                       # miss rate for ReadReq accesses
system.cpu1.dcache.ReadReq_miss_rate::total     0.006229                       # miss rate for ReadReq accesses
system.cpu1.dcache.ReadReq_avg_miss_latency::.cpu1.data 35538.880000                       # average ReadReq miss latency
system.cpu1.dcache.ReadReq_avg_miss_latency::total 35538.880000                       # average ReadReq miss latency
system.cpu1.dcache.ReadReq_mshr_hits::.cpu1.data          334                       # number of ReadReq MSHR hits
system.cpu1.dcache.ReadReq_mshr_hits::total          334                       # number of ReadReq MSHR hits
system.cpu1.dcache.ReadReq_mshr_misses::.cpu1.data         9041                       # number of ReadReq MSHR misses
system.cpu1.dcache.ReadReq_mshr_misses::total         9041                       # number of ReadReq MSHR misses
system.cpu1.dcache.ReadReq_mshr_miss_latency::.cpu1.data    310014500                       # number of ReadReq MSHR miss cycles
system.cpu1.dcache.ReadReq_mshr_miss_latency::total    310014500                       # number of ReadReq MSHR miss cycles
system.cpu1.dcache.ReadReq_mshr_miss_rate::.cpu1.data     0.006007                       # mshr miss rate for ReadReq accesses
system.cpu1.dcache.ReadReq_mshr_miss_rate::total     0.006007                       # mshr miss rate for ReadReq accesses
system.cpu1.dcache.ReadReq_avg_mshr_miss_latency::.cpu1.data 34289.846256                       # average ReadReq mshr miss latency
system.cpu1.dcache.ReadReq_avg_mshr_miss_latency::total 34289.846256                       # average ReadReq mshr miss latency
system.cpu1.dcache.WriteReq_hits::.cpu1.data      5824514                       # number of WriteReq hits
system.cpu1.dcache.WriteReq_hits::total       5824514                       # number of WriteReq hits
system.cpu1.dcache.WriteReq_misses::.cpu1.data      1456318                       # number of WriteReq misses
system.cpu1.dcache.WriteReq_misses::total      1456318                       # number of WriteReq misses
system.cpu1.dcache.WriteReq_miss_latency::.cpu1.data 105827810000                       # number of WriteReq miss cycles
system.cpu1.dcache.WriteReq_miss_latency::total 105827810000                       # number of WriteReq miss cycles
system.cpu1.dcache.WriteReq_accesses::.cpu1.data      7280832                       # number of WriteReq accesses(hits+misses)
system.cpu1.dcache.WriteReq_accesses::total      7280832                       # number of WriteReq accesses(hits+misses)
[...]
system.mem_ctrls.bytesPerActivate::512-639         9174      3.56%     14.87% # Bytes accessed per row activation
system.mem_ctrls.bytesPerActivate::640-767         5948      2.31%     17.18% # Bytes accessed per row activation
system.mem_ctrls.bytesPerActivate::768-895         5414      2.10%     19.27% # Bytes accessed per row activation
system.mem_ctrls.bytesPerActivate::896-1023         6126      2.37%     21.65% # Bytes accessed per row activation
system.mem_ctrls.bytesPerActivate::1024-1151       202151     78.35%    100.00% # Bytes accessed per row activation
system.mem_ctrls.bytesPerActivate::total       258005                       # Bytes accessed per row activation
system.mem_ctrls.rdPerTurnAround::samples       113020                       # Reads before turning the bus around for writes
system.mem_ctrls.rdPerTurnAround::mean      16.165758                       # Reads before turning the bus around for writes
system.mem_ctrls.rdPerTurnAround::gmean     16.029727                       # Reads before turning the bus around for writes
system.mem_ctrls.rdPerTurnAround::stdev      4.995257                       # Reads before turning the bus around for writes
system.mem_ctrls.rdPerTurnAround::0-31         112920     99.91%     99.91% # Reads before turning the bus around for writes
system.mem_ctrls.rdPerTurnAround::32-63            31      0.03%     99.94% # Reads before turning the bus around for writes
system.mem_ctrls.rdPerTurnAround::64-95            16      0.01%     99.95% # Reads before turning the bus around for writes
system.mem_ctrls.rdPerTurnAround::96-127           13      0.01%     99.96% # Reads before turning the bus around for writes
system.mem_ctrls.rdPerTurnAround::128-159           13      0.01%     99.98% # Reads before turning the bus around for writes
system.mem_ctrls.rdPerTurnAround::160-191            9      0.01%     99.98% # Reads before turning the bus around for writes
system.mem_ctrls.rdPerTurnAround::192-223            3      0.00%     99.99% # Reads before turning the bus around for writes
system.mem_ctrls.rdPerTurnAround::224-255            6      0.01%     99.99% # Reads before turning the bus around for writes
system.mem_ctrls.rdPerTurnAround::256-287            4      0.00%    100.00% # Reads before turning the bus around for writes
system.mem_ctrls.rdPerTurnAround::288-319            2      0.00%    100.00% # Reads before turning the bus around for writes
system.mem_ctrls.rdPerTurnAround::416-447            1      0.00%    100.00% # Reads before turning the bus around for writes
system.mem_ctrls.rdPerTurnAround::640-671            1      0.00%    100.00% # Reads before turning the bus around for writes
system.mem_ctrls.rdPerTurnAround::704-735            1      0.00%    100.00% # Reads before turning the bus around for writes
system.mem_ctrls.rdPerTurnAround::total        113020                       # Reads before turning the bus around for writes
system.mem_ctrls.wrPerTurnAround::samples       113020                       # Writes before turning the bus around for reads
system.mem_ctrls.wrPerTurnAround::mean      16.053061                       # Writes before turning the bus around for reads
system.mem_ctrls.wrPerTurnAround::gmean     16.047779                       # Writes before turning the bus around for reads
system.mem_ctrls.wrPerTurnAround::stdev      0.444704                       # Writes before turning the bus around for reads
system.mem_ctrls.wrPerTurnAround::16           111086     98.29%     98.29% # Writes before turning the bus around for reads
system.mem_ctrls.wrPerTurnAround::17              362      0.32%     98.61% # Writes before turning the bus around for reads
system.mem_ctrls.wrPerTurnAround::18              347      0.31%     98.92% # Writes before turning the bus around for reads
system.mem_ctrls.wrPerTurnAround::19              415      0.37%     99.28% # Writes before turning the bus around for reads
system.mem_ctrls.wrPerTurnAround::20              413      0.37%     99.65% # Writes before turning the bus around for reads
system.mem_ctrls.wrPerTurnAround::21              339      0.30%     99.95% # Writes before turning the bus around for reads
system.mem_ctrls.wrPerTurnAround::22               57      0.05%    100.00% # Writes before turning the bus around for reads
system.mem_ctrls.wrPerTurnAround::23                1      0.00%    100.00% # Writes before turning the bus around for reads
system.mem_ctrls.wrPerTurnAround::total        113020                       # Writes before turning the bus around for reads
system.mem_ctrls.bytesReadDRAM              116931712                       # Total number of bytes read from DRAM
system.mem_ctrls.bytesReadWrQ                   11456                       # Total number of bytes read from write queue
system.mem_ctrls.bytesWritten               116116288                       # Total number of bytes written to DRAM
system.mem_ctrls.bytesReadSys               116943168                       # Total read bytes from the system interface side
system.mem_ctrls.bytesWrittenSys            116120960                       # Total written bytes from the system interface side
system.mem_ctrls.avgRdBW                      1909.55                       # Average DRAM read bandwidth in MiByte/s
system.mem_ctrls.avgWrBW                      1896.24                       # Average achieved write bandwidth in MiByte/s
system.mem_ctrls.avgRdBWSys                   1909.74                       # Average system read bandwidth in MiByte/s
system.mem_ctrls.avgWrBWSys                   1896.31                       # Average system write bandwidth in MiByte/s
system.mem_ctrls.peakBW                      12800.00                       # Theoretical peak bandwidth in MiByte/s
system.mem_ctrls.busUtil                        29.73                       # Data bus utilization in percentage
system.mem_ctrls.busUtilRead                    14.92                       # Data bus utilization in percentage for reads
system.mem_ctrls.busUtilWrite                   14.81                       # Data bus utilization in percentage for writes
system.mem_ctrls.totGap                   61235127500                       # Total gap between requests
system.mem_ctrls.avgGap                      16815.32                       # Average gap between requests
system.mem_ctrls.masterReadBytes::.cpu0.inst       203456                       # Per-master bytes read from memory
system.mem_ctrls.masterReadBytes::.cpu0.data     58257920                       # Per-master bytes read from memory
system.mem_ctrls.masterReadBytes::.cpu1.inst       113088                       # Per-master bytes read from memory
system.mem_ctrls.masterReadBytes::.cpu1.data     58357248                       # Per-master bytes read from memory
system.mem_ctrls.masterWriteBytes::.writebacks    116116288                       # Per-master bytes write to memory
system.mem_ctrls.masterReadRate::.cpu0.inst 3322536.239133967087                       # Per-master bytes read from memory rate (Bytes/sec)
system.mem_ctrls.masterReadRate::.cpu0.data 951380398.791716814041                       # Per-master bytes read from memory rate (Bytes/sec)
system.mem_ctrls.masterReadRate::.cpu1.inst 1846782.489635017235                       # Per-master bytes read from memory rate (Bytes/sec)
system.mem_ctrls.masterReadRate::.cpu1.data 953002473.734508872032                       # Per-master bytes read from memory rate (Bytes/sec)
system.mem_ctrls.masterWriteRate::.writebacks 1896235917.513942003250                       # Per-master bytes write to memory rate (Bytes/sec)
system.mem_ctrls.masterReadAccesses::.cpu0.inst         3179                       # Per-master read serviced memory accesses
system.mem_ctrls.masterReadAccesses::.cpu0.data       910438                       # Per-master read serviced memory accesses
system.mem_ctrls.masterReadAccesses::.cpu1.inst         1767                       # Per-master read serviced memory accesses
system.mem_ctrls.masterReadAccesses::.cpu1.data       911853                       # Per-master read serviced memory accesses
system.mem_ctrls.masterWriteAccesses::.writebacks      1814390                       # Per-master write serviced memory accesses
system.mem_ctrls.masterReadTotalLat::.cpu0.inst    100063500                       # Per-master read total memory access latency
system.mem_ctrls.masterReadTotalLat::.cpu0.data  35579496250                       # Per-master read total memory access latency
system.mem_ctrls.masterReadTotalLat::.cpu1.inst     53236500                       # Per-master read total memory access latency
system.mem_ctrls.masterReadTotalLat::.cpu1.data  35645228750                       # Per-master read total memory access latency
system.mem_ctrls.masterWriteTotalLat::.writebacks 1560558963000                       # Per-master write total memory access latency
system.mem_ctrls.masterReadAvgLat::.cpu0.inst     31476.41                       # Per-master read average memory access latency
system.mem_ctrls.masterReadAvgLat::.cpu0.data     39079.54                       # Per-master read average memory access latency
system.mem_ctrls.masterReadAvgLat::.cpu1.inst     30128.18                       # Per-master read average memory access latency
system.mem_ctrls.masterReadAvgLat::.cpu1.data     39090.98                       # Per-master read average memory access latency
system.mem_ctrls.masterWriteAvgLat::.writebacks    860101.17                       # Per-master write average memory access latency
system.mem_ctrls.pageHitRate                    92.91                       # Row buffer hit rate, read and write combined
system.mem_ctrls.rank1.actEnergy            919731960                       # Energy for activate commands per rank (pJ)
system.mem_ctrls.rank1.preEnergy            488837745                       # Energy for precharge commands per rank (pJ)
system.mem_ctrls.rank1.readEnergy          6521404680                       # Energy for read commands per rank (pJ)
system.mem_ctrls.rank1.writeEnergy         4734675720                       # Energy for write commands per rank (pJ)
system.mem_ctrls.rank1.refreshEnergy     4833528960.000001                       # Energy for refresh commands per rank (pJ)
system.mem_ctrls.rank1.actBackEnergy      23344001730                       # Energy for active background per rank (pJ)
system.mem_ctrls.rank1.preBackEnergy       3856190400                       # Energy for precharge background per rank (pJ)
system.mem_ctrls.rank1.actPowerDownEnergy            0                       # Energy for active power-down per rank (pJ)
system.mem_ctrls.rank1.prePowerDownEnergy            0                       # Energy for precharge power-down per rank (pJ)
system.mem_ctrls.rank1.selfRefreshEnergy            0                       # Energy for self refresh per rank (pJ)
system.mem_ctrls.rank1.totalEnergy        44698371195                       # Total energy per rank (pJ)
system.mem_ctrls.rank1.averagePower        729.946318                       # Core power per rank (mW)
system.mem_ctrls.rank1.totalIdleTime                0                       # Total Idle time Per DRAM Rank
system.mem_ctrls.rank1.memoryStateTime::IDLE   9652472750                       # Time in different power states
system.mem_ctrls.rank1.memoryStateTime::REF   2044640000                       # Time in different power states
system.mem_ctrls.rank1.memoryStateTime::SREF            0                       # Time in different power states
system.mem_ctrls.rank1.memoryStateTime::PRE_PDN            0                       # Time in different power states
system.mem_ctrls.rank1.memoryStateTime::ACT  49538035750                       # Time in different power states
system.mem_ctrls.rank1.memoryStateTime::ACT_PDN            0                       # Time in different power states
system.mem_ctrls.rank0.actEnergy            922452300                       # Energy for activate commands per rank (pJ)
system.mem_ctrls.rank0.preEnergy            490291230                       # Energy for precharge commands per rank (pJ)
system.mem_ctrls.rank0.readEnergy          6523789440                       # Energy for read commands per rank (pJ)
system.mem_ctrls.rank0.writeEnergy         4736059020                       # Energy for write commands per rank (pJ)
system.mem_ctrls.rank0.refreshEnergy     4833528960.000001                       # Energy for refresh commands per rank (pJ)
system.mem_ctrls.rank0.actBackEnergy      23485761300                       # Energy for active background per rank (pJ)
system.mem_ctrls.rank0.preBackEnergy       3736813920                       # Energy for precharge background per rank (pJ)
system.mem_ctrls.rank0.actPowerDownEnergy            0                       # Energy for active power-down per rank (pJ)
system.mem_ctrls.rank0.prePowerDownEnergy            0                       # Energy for precharge power-down per rank (pJ)
system.mem_ctrls.rank0.selfRefreshEnergy            0                       # Energy for self refresh per rank (pJ)
system.mem_ctrls.rank0.totalEnergy        44728696170                       # Total energy per rank (pJ)
system.mem_ctrls.rank0.averagePower        730.441540                       # Core power per rank (mW)
system.mem_ctrls.rank0.totalIdleTime                0                       # Total Idle time Per DRAM Rank
system.mem_ctrls.rank0.memoryStateTime::IDLE   9342883250                       # Time in different power states
system.mem_ctrls.rank0.memoryStateTime::REF   2044640000                       # Time in different power states
system.mem_ctrls.rank0.memoryStateTime::SREF            0                       # Time in different power states
system.mem_ctrls.rank0.memoryStateTime::PRE_PDN            0                       # Time in different power states
system.mem_ctrls.rank0.memoryStateTime::ACT  49847625250                       # Time in different power states
system.mem_ctrls.rank0.memoryStateTime::ACT_PDN            0                       # Time in different power states
system.mem_ctrls.power_state.pwrStateResidencyTicks::UNDEFINED  61235148500                       # Cumulative time (in ticks) in various power states
system.cpu_clk_domain.clock                       500                       # Clock period in ticks
system.tol2bus.trans_dist::ReadResp             40252                       # Transaction distribution
system.tol2bus.trans_dist::WritebackDirty      3637103                       # Transaction distribution
system.tol2bus.trans_dist::WritebackClean        22138                       # Transaction distribution
system.tol2bus.trans_dist::CleanEvict           25637                       # Transaction distribution
system.tol2bus.trans_dist::ReadExReq          1817814                       # Transaction distribution
system.tol2bus.trans_dist::ReadExResp         1817811                       # Transaction distribution
system.tol2bus.trans_dist::ReadCleanReq         22170                       # Transaction distribution
system.tol2bus.trans_dist::ReadSharedReq        18082                       # Transaction distribution
system.tol2bus.pkt_count_system.cpu0.icache.mem_side::system.l2.cpu_side        33140                       # Packet count per connected master and slave (bytes)
system.tol2bus.pkt_count_system.cpu0.dcache.mem_side::system.l2.cpu_side      2748925                       # Packet count per connected master and slave (bytes)
system.tol2bus.pkt_count_system.cpu1.icache.mem_side::system.l2.cpu_side        33338                       # Packet count per connected master and slave (bytes)
system.tol2bus.pkt_count_system.cpu1.dcache.mem_side::system.l2.cpu_side      2758725                       # Packet count per connected master and slave (bytes)
system.tol2bus.pkt_count::total               5574128                       # Packet count per connected master and slave (bytes)
system.tol2bus.pkt_size_system.cpu0.icache.mem_side::system.l2.cpu_side      1413632                       # Cumulative packet size per connected master and slave (bytes)
system.tol2bus.pkt_size_system.cpu0.dcache.mem_side::system.l2.cpu_side    116866560                       # Cumulative packet size per connected master and slave (bytes)
system.tol2bus.pkt_size_system.cpu1.icache.mem_side::system.l2.cpu_side      1422080                       # Cumulative packet size per connected master and slave (bytes)
system.tol2bus.pkt_size_system.cpu1.dcache.mem_side::system.l2.cpu_side    117284224                       # Cumulative packet size per connected master and slave (bytes)
system.tol2bus.pkt_size::total              236986496                       # Cumulative packet size per connected master and slave (bytes)
system.tol2bus.snoops                         1826879                       # Total snoops (count)
system.tol2bus.snoopTraffic                 116120960                       # Total snoop traffic (bytes)
system.tol2bus.snoop_fanout::samples          3684945                       # Request fanout histogram
system.tol2bus.snoop_fanout::mean            0.000367                       # Request fanout histogram
system.tol2bus.snoop_fanout::stdev           0.019158                       # Request fanout histogram
system.tol2bus.snoop_fanout::underflows             0      0.00%      0.00% # Request fanout histogram
system.tol2bus.snoop_fanout::0                3683592     99.96%     99.96% # Request fanout histogram
system.tol2bus.snoop_fanout::1                   1353      0.04%    100.00% # Request fanout histogram
system.tol2bus.snoop_fanout::2                      0      0.00%    100.00% # Request fanout histogram
system.tol2bus.snoop_fanout::3                      0      0.00%    100.00% # Request fanout histogram
system.tol2bus.snoop_fanout::4                      0      0.00%    100.00% # Request fanout histogram
system.tol2bus.snoop_fanout::5                      0      0.00%    100.00% # Request fanout histogram
system.tol2bus.snoop_fanout::6                      0      0.00%    100.00% # Request fanout histogram
system.tol2bus.snoop_fanout::7                      0      0.00%    100.00% # Request fanout histogram
system.tol2bus.snoop_fanout::8                      0      0.00%    100.00% # Request fanout histogram
system.tol2bus.snoop_fanout::overflows              0      0.00%    100.00% # Request fanout histogram
system.tol2bus.snoop_fanout::min_value              0                       # Request fanout histogram
system.tol2bus.snoop_fanout::max_value              1                       # Request fanout histogram
system.tol2bus.snoop_fanout::total            3684945                       # Request fanout histogram
system.tol2bus.reqLayer0.occupancy         3702883500                       # Layer occupancy (ticks)
system.tol2bus.reqLayer0.utilization              6.0                       # Layer utilization (%)
system.tol2bus.respLayer5.occupancy        1379391956                       # Layer occupancy (ticks)
system.tol2bus.respLayer5.utilization             2.3                       # Layer utilization (%)
system.tol2bus.respLayer4.occupancy          16687478                       # Layer occupancy (ticks)
system.tol2bus.respLayer4.utilization             0.0                       # Layer utilization (%)
system.tol2bus.respLayer1.occupancy        1374508921                       # Layer occupancy (ticks)
system.tol2bus.respLayer1.utilization             2.2                       # Layer utilization (%)
system.tol2bus.respLayer0.occupancy          16633389                       # Layer occupancy (ticks)
system.tol2bus.respLayer0.utilization             0.0                       # Layer utilization (%)
system.tol2bus.power_state.pwrStateResidencyTicks::UNDEFINED  61235148500                       # Cumulative time (in ticks) in various power states

---------- End Simulation Statistics   ----------
