
---------- Begin Simulation Statistics ----------
final_tick                                33438156500                       # Number of ticks from beginning of simulation (restored from checkpoints and never reset)
host_inst_rate                                 208113                       # Simulator instruction rate (inst/s)
host_mem_usage                                4435520                       # Number of bytes of host memory used
host_op_rate                                   360649                       # Simulator op (including micro ops) rate (op/s)
host_seconds                                    75.61                       # Real time elapsed on the host
host_tick_rate                              442258770                       # Simulator tick rate (ticks/s)
sim_freq                                 1000000000000                       # Frequency of simulated ticks
sim_insts                                    15734918                       # Number of instructions simulated
sim_ops                                      27267809                       # Number of ops (including micro ops) simulated
sim_seconds                                  0.033438                       # Number of seconds simulated
sim_ticks                                 33438156500                       # Number of ticks simulated
system.cpu0.branchPred.BTBCorrect                   0                       # Number of correct BTB predictions (this stat may not work properly.
system.cpu0.branchPred.BTBHitPct                  nan                       # BTB Hit Percentage
system.cpu0.branchPred.BTBHits                      0                       # Number of BTB hits
system.cpu0.branchPred.BTBLookups                   0                       # Number of BTB lookups
system.cpu0.branchPred.RASInCorrect                 0                       # Number of incorrect RAS predictions.
system.cpu0.branchPred.condIncorrect               40                       # Number of conditional branches incorrect
system.cpu0.branchPred.condPredicted               83                       # Number of conditional branches predicted
system.cpu0.branchPred.indirectHits                 1                       # Number of indirect target hits.
system.cpu0.branchPred.indirectLookups             25                       # Number of indirect predictor lookups.
system.cpu0.branchPred.indirectMisses              24                       # Number of indirect misses.
system.cpu0.branchPred.lookups                     83                       # Number of BP lookups
system.cpu0.branchPred.usedRAS                      0                       # Number of times the RAS was used to get a target.
system.cpu0.branchPredindirectMispredicted           12                       # Number of mispredicted indirect branches.
system.cpu0.committedInsts                    5734918                       # Number of instructions committed
system.cpu0.committedOps                      8351429                       # Number of ops (including micro ops) committed
system.cpu0.cpi                             11.661234                       # CPI: cycles per instruction
system.cpu0.discardedOps                      1119411                       # Number of ops (including micro ops) which were discarded before commit
system.cpu0.dtb.rdAccesses                    1082312                       # TLB accesses on read requests
system.cpu0.dtb.rdMisses                       207813                       # TLB misses on read requests
system.cpu0.dtb.wrAccesses                    4134896                       # TLB accesses on write requests
system.cpu0.dtb.wrMisses                        16127                       # TLB misses on write requests
system.cpu0.fetch2.amo_instructions                 0                       # Number of memory atomic instructions successfully decoded
system.cpu0.fetch2.fp_instructions                  0                       # Number of floating point instructions successfully decoded
system.cpu0.fetch2.int_instructions                 8                       # Number of integer instructions successfully decoded
system.cpu0.fetch2.load_instructions                0                       # Number of memory load instructions successfully decoded
system.cpu0.fetch2.store_instructions               0                       # Number of memory store instructions successfully decoded
system.cpu0.fetch2.vec_instructions                 0                       # Number of SIMD instructions successfully decoded
system.cpu0.idleCycles                       55352072                       # Total number of cycles that the object has spent stopped
system.cpu0.ipc                              0.085754                       # IPC: instructions per cycle
system.cpu0.itb.rdAccesses                          0                       # TLB accesses on read requests
system.cpu0.itb.rdMisses                            0                       # TLB misses on read requests
system.cpu0.itb.wrAccesses                    1336015                       # TLB accesses on write requests
system.cpu0.itb.wrMisses                          250                       # TLB misses on write requests
system.cpu0.numCycles                        66876222                       # number of cpu cycles simulated
system.cpu0.numFetchSuspends                        0                       # Number of times Execute suspended instruction fetching
system.cpu0.numWorkItemsCompleted                   0                       # number of work items this cpu completed
system.cpu0.numWorkItemsStarted                     0                       # number of work items this cpu started
system.cpu0.op_class_0::No_OpClass               1997      0.02%      0.02% # Class of committed instruction
system.cpu0.op_class_0::IntAlu                2928769     35.07%     35.09% # Class of committed instruction
system.cpu0.op_class_0::IntMult                    36      0.00%     35.09% # Class of committed instruction
system.cpu0.op_class_0::IntDiv                   1447      0.02%     35.11% # Class of committed instruction
system.cpu0.op_class_0::FloatAdd               617178      7.39%     42.50% # Class of committed instruction
system.cpu0.op_class_0::FloatCmp                    0      0.00%     42.50% # Class of committed instruction
system.cpu0.op_class_0::FloatCvt                  112      0.00%     42.50% # Class of committed instruction
system.cpu0.op_class_0::FloatMult                   0      0.00%     42.50% # Class of committed instruction
system.cpu0.op_class_0::FloatMultAcc                0      0.00%     42.50% # Class of committed instruction
system.cpu0.op_class_0::FloatDiv                    0      0.00%     42.50% # Class of committed instruction
system.cpu0.op_class_0::FloatMisc                   0      0.00%     42.50% # Class of committed instruction
system.cpu0.op_class_0::FloatSqrt                   0      0.00%     42.50% # Class of committed instruction
system.cpu0.op_class_0::SimdAdd                  1140      0.01%     42.52% # Class of committed instruction
system.cpu0.op_class_0::SimdAddAcc                  0      0.00%     42.52% # Class of committed instruction
system.cpu0.op_class_0::SimdAlu                  1367      0.02%     42.53% # Class of committed instruction
system.cpu0.op_class_0::SimdCmp                    12      0.00%     42.53% # Class of committed instruction
system.cpu0.op_class_0::SimdCvt                  1866      0.02%     42.55% # Class of committed instruction
system.cpu0.op_class_0::SimdMisc                 1287      0.02%     42.57% # Class of committed instruction
system.cpu0.op_class_0::SimdMult                    0      0.00%     42.57% # Class of committed instruction
system.cpu0.op_class_0::SimdMultAcc                 0      0.00%     42.57% # Class of committed instruction
system.cpu0.op_class_0::SimdShift                 426      0.01%     42.58% # Class of committed instruction
system.cpu0.op_class_0::SimdShiftAcc                0      0.00%     42.58% # Class of committed instruction
system.cpu0.op_class_0::SimdDiv                     0      0.00%     42.58% # Class of committed instruction
system.cpu0.op_class_0::SimdSqrt                    0      0.00%     42.58% # Class of committed instruction
system.cpu0.op_class_0::SimdFloatAdd                0      0.00%     42.58% # Class of committed instruction
system.cpu0.op_class_0::SimdFloatAlu                0      0.00%     42.58% # Class of committed instruction
system.cpu0.op_class_0::SimdFloatCmp                0      0.00%     42.58% # Class of committed instruction
system.cpu0.op_class_0::SimdFloatCvt                2      0.00%     42.58% # Class of committed instruction
system.cpu0.op_class_0::SimdFloatDiv                0      0.00%     42.58% # Class of committed instruction
system.cpu0.op_class_0::SimdFloatMisc               0      0.00%     42.58% # Class of committed instruction
system.cpu0.op_class_0::SimdFloatMult               0      0.00%     42.58% # Class of committed instruction
system.cpu0.op_class_0::SimdFloatMultAcc            0      0.00%     42.58% # Class of committed instruction
system.cpu0.op_class_0::SimdFloatSqrt               0      0.00%     42.58% # Class of committed instruction
system.cpu0.op_class_0::SimdReduceAdd               0      0.00%     42.58% # Class of committed instruction
system.cpu0.op_class_0::SimdReduceAlu               0      0.00%     42.58% # Class of committed instruction
system.cpu0.op_class_0::SimdReduceCmp               0      0.00%     42.58% # Class of committed instruction
system.cpu0.op_class_0::SimdFloatReduceAdd            0      0.00%     42.58% # Class of committed instruction
system.cpu0.op_class_0::SimdFloatReduceCmp            0      0.00%     42.58% # Class of committed instruction
system.cpu0.op_class_0::SimdAes                     0      0.00%     42.58% # Class of committed instruction
system.cpu0.op_class_0::SimdAesMix                  0      0.00%     42.58% # Class of committed instruction
system.cpu0.op_class_0::SimdSha1Hash                0      0.00%     42.58% # Class of committed instruction
system.cpu0.op_class_0::SimdSha1Hash2               0      0.00%     42.58% # Class of committed instruction
system.cpu0.op_class_0::SimdSha256Hash              0      0.00%     42.58% # Class of committed instruction
system.cpu0.op_class_0::SimdSha256Hash2             0      0.00%     42.58% # Class of committed instruction
system.cpu0.op_class_0::SimdShaSigma2               0      0.00%     42.58% # Class of committed instruction
system.cpu0.op_class_0::SimdShaSigma3               0      0.00%     42.58% # Class of committed instruction
system.cpu0.op_class_0::SimdPredAlu                 0      0.00%     42.58% # Class of committed instruction
system.cpu0.op_class_0::MemRead                 42409      0.51%     43.08% # Class of committed instruction
system.cpu0.op_class_0::MemWrite               225389      2.70%     45.78% # Class of committed instruction
system.cpu0.op_class_0::FloatMemRead           619260      7.42%     53.20% # Class of committed instruction
system.cpu0.op_class_0::FloatMemWrite         3908732     46.80%    100.00% # Class of committed instruction
system.cpu0.op_class_0::IprAccess                   0      0.00%    100.00% # Class of committed instruction
system.cpu0.op_class_0::InstPrefetch                0      0.00%    100.00% # Class of committed instruction
system.cpu0.op_class_0::total                 8351429                       # Class of committed instruction
system.cpu0.tickCycles                       11524150                       # Number of cycles that the object actually ticked
system.cpu0.workload.numSyscalls                   40                       # Number of system calls
system.cpu1.branchPred.BTBCorrect                   0                       # Number of correct BTB predictions (this stat may not work properly.
system.cpu1.branchPred.BTBHitPct                  nan                       # BTB Hit Percentage
system.cpu1.branchPred.BTBHits                      0                       # Number of BTB hits
system.cpu1.branchPred.BTBLookups                   0                       # Number of BTB lookups
system.cpu1.branchPred.RASInCorrect                 0                       # Number of incorrect RAS predictions.
system.cpu1.branchPred.condIncorrect               39                       # Number of conditional branches incorrect
system.cpu1.branchPred.condPredicted               80                       # Number of conditional branches predicted
system.cpu1.branchPred.indirectHits                 0                       # Number of indirect target hits.
system.cpu1.branchPred.indirectLookups             24                       # Number of indirect predictor lookups.
system.cpu1.branchPred.indirectMisses              24                       # Number of indirect misses.
system.cpu1.branchPred.lookups                     80                       # Number of BP lookups
system.cpu1.branchPred.usedRAS                      0                       # Number of times the RAS was used to get a target.
system.cpu1.branchPredindirectMispredicted           15                       # Number of mispredicted indirect branches.
system.cpu1.committedInsts                   10000000                       # Number of instructions committed
system.cpu1.committedOps                     18916380                       # Number of ops (including micro ops) committed
system.cpu1.cpi                              6.687631                       # CPI: cycles per instruction
system.cpu1.discardedOps                      3503578                       # Number of ops (including micro ops) which were discarded before commit
system.cpu1.dtb.rdAccesses                    2501863                       # TLB accesses on read requests
system.cpu1.dtb.rdMisses                        32890                       # TLB misses on read requests
system.cpu1.dtb.wrAccesses                    1828767                       # TLB accesses on write requests
system.cpu1.dtb.wrMisses                         1221                       # TLB misses on write requests
system.cpu1.fetch2.amo_instructions                 0                       # Number of memory atomic instructions successfully decoded
system.cpu1.fetch2.fp_instructions                  0                       # Number of floating point instructions successfully decoded
system.cpu1.fetch2.int_instructions                 8                       # Number of integer instructions successfully decoded
system.cpu1.fetch2.load_instructions                0                       # Number of memory load instructions successfully decoded
system.cpu1.fetch2.store_instructions               0                       # Number of memory store instructions successfully decoded
system.cpu1.fetch2.vec_instructions                 0                       # Number of SIMD instructions successfully decoded
system.cpu1.idleCycles                       34370241                       # Total number of cycles that the object has spent stopped
system.cpu1.ipc                              0.149530                       # IPC: instructions per cycle
system.cpu1.itb.rdAccesses                          0                       # TLB accesses on read requests
system.cpu1.itb.rdMisses                            0                       # TLB misses on read requests
system.cpu1.itb.wrAccesses                    3366609                       # TLB accesses on write requests
system.cpu1.itb.wrMisses                          215                       # TLB misses on write requests
system.cpu1.numCycles                        66876313                       # number of cpu cycles simulated
system.cpu1.numFetchSuspends                        0                       # Number of times Execute suspended instruction fetching
system.cpu1.numWorkItemsCompleted                   0                       # number of work items this cpu completed
system.cpu1.numWorkItemsStarted                     0                       # number of work items this cpu started
system.cpu1.op_class_0::No_OpClass              38775      0.20%      0.20% # Class of committed instruction
system.cpu1.op_class_0::IntAlu               14860976     78.56%     78.77% # Class of committed instruction
system.cpu1.op_class_0::IntMult                 41062      0.22%     78.98% # Class of committed instruction
system.cpu1.op_class_0::IntDiv                   1365      0.01%     78.99% # Class of committed instruction
system.cpu1.op_class_0::FloatAdd                24884      0.13%     79.12% # Class of committed instruction
system.cpu1.op_class_0::FloatCmp                    0      0.00%     79.12% # Class of committed instruction
system.cpu1.op_class_0::FloatCvt                  160      0.00%     79.12% # Class of committed instruction
system.cpu1.op_class_0::FloatMult                   0      0.00%     79.12% # Class of committed instruction
system.cpu1.op_class_0::FloatMultAcc                0      0.00%     79.12% # Class of committed instruction
system.cpu1.op_class_0::FloatDiv                    0      0.00%     79.12% # Class of committed instruction
system.cpu1.op_class_0::FloatMisc                   0      0.00%     79.12% # Class of committed instruction
system.cpu1.op_class_0::FloatSqrt                   0      0.00%     79.12% # Class of committed instruction
system.cpu1.op_class_0::SimdAdd                   946      0.01%     79.13% # Class of committed instruction
system.cpu1.op_class_0::SimdAddAcc                  0      0.00%     79.13% # Class of committed instruction
system.cpu1.op_class_0::SimdAlu                  1027      0.01%     79.13% # Class of committed instruction
system.cpu1.op_class_0::SimdCmp                    12      0.00%     79.13% # Class of committed instruction
system.cpu1.op_class_0::SimdCvt                 27378      0.14%     79.28% # Class of committed instruction
system.cpu1.op_class_0::SimdMisc               112708      0.60%     79.87% # Class of committed instruction
system.cpu1.op_class_0::SimdMult                    0      0.00%     79.87% # Class of committed instruction
system.cpu1.op_class_0::SimdMultAcc                 0      0.00%     79.87% # Class of committed instruction
system.cpu1.op_class_0::SimdShift                 446      0.00%     79.88% # Class of committed instruction
system.cpu1.op_class_0::SimdShiftAcc                0      0.00%     79.88% # Class of committed instruction
system.cpu1.op_class_0::SimdDiv                     0      0.00%     79.88% # Class of committed instruction
system.cpu1.op_class_0::SimdSqrt                    0      0.00%     79.88% # Class of committed instruction
system.cpu1.op_class_0::SimdFloatAdd                0      0.00%     79.88% # Class of committed instruction
system.cpu1.op_class_0::SimdFloatAlu                0      0.00%     79.88% # Class of committed instruction
system.cpu1.op_class_0::SimdFloatCmp                0      0.00%     79.88% # Class of committed instruction
system.cpu1.op_class_0::SimdFloatCvt                0      0.00%     79.88% # Class of committed instruction
system.cpu1.op_class_0::SimdFloatDiv                0      0.00%     79.88% # Class of committed instruction
system.cpu1.op_class_0::SimdFloatMisc               0      0.00%     79.88% # Class of committed instruction
system.cpu1.op_class_0::SimdFloatMult               0      0.00%     79.88% # Class of committed instruction
system.cpu1.op_class_0::SimdFloatMultAcc            0      0.00%     79.88% # Class of committed instruction
system.cpu1.op_class_0::SimdFloatSqrt               0      0.00%     79.88% # Class of committed instruction
system.cpu1.op_class_0::SimdReduceAdd               0      0.00%     79.88% # Class of committed instruction
system.cpu1.op_class_0::SimdReduceAlu               0      0.00%     79.88% # Class of committed instruction
system.cpu1.op_class_0::SimdReduceCmp               0      0.00%     79.88% # Class of committed instruction
system.cpu1.op_class_0::SimdFloatReduceAdd            0      0.00%     79.88% # Class of committed instruction
system.cpu1.op_class_0::SimdFloatReduceCmp            0      0.00%     79.88% # Class of committed instruction
system.cpu1.op_class_0::SimdAes                     0      0.00%     79.88% # Class of committed instruction
system.cpu1.op_class_0::SimdAesMix                  0      0.00%     79.88% # Class of committed instruction
system.cpu1.op_class_0::SimdSha1Hash                0      0.00%     79.88% # Class of committed instruction
system.cpu1.op_class_0::SimdSha1Hash2               0      0.00%     79.88% # Class of committed instruction
system.cpu1.op_class_0::SimdSha256Hash              0      0.00%     79.88% # Class of committed instruction
system.cpu1.op_class_0::SimdSha256Hash2             0      0.00%     79.88% # Class of committed instruction
system.cpu1.op_class_0::SimdShaSigma2               0      0.00%     79.88% # Class of committed instruction
system.cpu1.op_class_0::SimdShaSigma3               0      0.00%     79.88% # Class of committed instruction
system.cpu1.op_class_0::SimdPredAlu                 0      0.00%     79.88% # Class of committed instruction
system.cpu1.op_class_0::MemRead               2046688     10.82%     90.70% # Class of committed instruction
system.cpu1.op_class_0::MemWrite              1656607      8.76%     99.45% # Class of committed instruction
system.cpu1.op_class_0::FloatMemRead            64978      0.34%     99.80% # Class of committed instruction
system.cpu1.op_class_0::FloatMemWrite           38368      0.20%    100.00% # Class of committed instruction
system.cpu1.op_class_0::IprAccess                   0      0.00%    100.00% # Class of committed instruction
system.cpu1.op_class_0::InstPrefetch                0      0.00%    100.00% # Class of committed instruction
system.cpu1.op_class_0::total                18916380                       # Class of committed instruction
system.cpu1.tickCycles                       32506072                       # Number of cycles that the object actually ticked
system.cpu1.workload.numSyscalls                   39                       # Number of system calls
system.membus.snoop_filter.hit_multi_requests            0                       # Number of requests hitting in the snoop filter with multiple (>1) holders of the requested data.
system.membus.snoop_filter.hit_multi_snoops            0                       # Number of snoops hitting in the snoop filter with multiple (>1) holders of the requested data.
system.membus.snoop_filter.hit_single_requests       565207                       # Number of requests hitting in the snoop filter with a single holder of the requested data.
system.membus.snoop_filter.hit_single_snoops            0                       # Number of snoops hitting in the snoop filter with a single holder of the requested data.
system.membus.snoop_filter.tot_requests       1131458                       # Total number of requests made to the snoop filter.
system.membus.snoop_filter.tot_snoops               0                       # Total number of snoops made to the snoop filter.
system.tol2bus.snoop_filter.hit_multi_requests            0                       # Number of requests hitting in the snoop filter with multiple (>1) holders of the requested data.
system.tol2bus.snoop_filter.hit_multi_snoops            0                       # Number of snoops hitting in the snoop filter with multiple (>1) holders of the requested data.
system.tol2bus.snoop_filter.hit_single_requests      2809401                       # Number of requests hitting in the snoop filter with a single holder of the requested data.
system.tol2bus.snoop_filter.hit_single_snoops         1453                       # Number of snoops hitting in the snoop filter with a single holder of the requested data.
system.tol2bus.snoop_filter.tot_requests      5618868                       # Total number of requests made to the snoop filter.
system.tol2bus.snoop_filter.tot_snoops           1453                       # Total number of snoops made to the snoop filter.
system.membus.trans_dist::ReadResp              17552                       # Transaction distribution
system.membus.trans_dist::WritebackDirty       552729                       # Transaction distribution
system.membus.trans_dist::CleanEvict            12478                       # Transaction distribution
system.membus.trans_dist::ReadExReq            548699                       # Transaction distribution
system.membus.trans_dist::ReadExResp           548697                       # Transaction distribution
system.membus.trans_dist::ReadSharedReq         17552                       # Transaction distribution
system.membus.pkt_count_system.l2.mem_side::system.mem_ctrls.port      1697707                       # Packet count per connected master and slave (bytes)
system.membus.pkt_count_system.l2.mem_side::total      1697707                       # Packet count per connected master and slave (bytes)
system.membus.pkt_count::total                1697707                       # Packet count per connected master and slave (bytes)
system.membus.pkt_size_system.l2.mem_side::system.mem_ctrls.port     71614592                       # Cumulative packet size per connected master and slave (bytes)
system.membus.pkt_size_system.l2.mem_side::total     71614592                       # Cumulative packet size per connected master and slave (bytes)
system.membus.pkt_size::total                71614592                       # Cumulative packet size per connected master and slave (bytes)
system.membus.snoops                                0                       # Total snoops (count)
system.membus.snoopTraffic                          0                       # Total snoop traffic (bytes)
system.membus.snoop_fanout::samples            566251                       # Request fanout histogram
system.membus.snoop_fanout::mean                    0                       # Request fanout histogram
system.membus.snoop_fanout::stdev                   0                       # Request fanout histogram
system.membus.snoop_fanout::underflows              0      0.00%      0.00% # Request fanout histogram
system.membus.snoop_fanout::0                  566251    100.00%    100.00% # Request fanout histogram
system.membus.snoop_fanout::1                       0      0.00%    100.00% # Request fanout histogram
system.membus.snoop_fanout::overflows               0      0.00%    100.00% # Request fanout histogram
system.membus.snoop_fanout::min_value               0                       # Request fanout histogram
system.membus.snoop_fanout::max_value               0                       # Request fanout histogram
system.membus.snoop_fanout::total              566251                       # Request fanout histogram
system.membus.reqLayer4.occupancy          3546123000                       # Layer occupancy (ticks)
system.membus.reqLayer4.utilization              10.6                       # Layer utilization (%)
system.membus.respLayer1.occupancy         2965362000                       # Layer occupancy (ticks)
system.membus.respLayer1.utilization              8.9                       # Layer utilization (%)
system.membus.power_state.pwrStateResidencyTicks::UNDEFINED  33438156500                       # Cumulative time (in ticks) in various power states
system.voltage_domain.voltage                       1                       # Voltage in Volts
system.clk_domain.clock                          1000                       # Clock period in ticks
system.cpu0.icache.demand_hits::.cpu0.inst      1324895                       # number of demand (read+write) hits
system.cpu0.icache.demand_hits::total         1324895                       # number of demand (read+write) hits
system.cpu0.icache.overall_hits::.cpu0.inst      1324895                       # number of overall hits
system.cpu0.icache.overall_hits::total        1324895                       # number of overall hits
system.cpu0.icache.demand_misses::.cpu0.inst        11053                       # number of demand (read+write) misses
system.cpu0.icache.demand_misses::total         11053                       # number of demand (read+write) misses
system.cpu0.icache.overall_misses::.cpu0.inst        11053                       # number of overall misses
system.cpu0.icache.overall_misses::total        11053                       # number of overall misses
system.cpu0.icache.demand_miss_latency::.cpu0.inst    364040000                       # number of demand (read+write) miss cycles
system.cpu0.icache.demand_miss_latency::total    364040000                       # number of demand (read+write) miss cycles
system.cpu0.icache.overall_miss_latency::.cpu0.inst    364040000                       # number of overall miss cycles
system.cpu0.icache.overall_miss_latency::total    364040000                       # number of overall miss cycles
system.cpu0.icache.demand_accesses::.cpu0.inst      1335948                       # number of demand (read+write) accesses
system.cpu0.icache.demand_accesses::total      1335948                       # number of demand (read+write) accesses
system.cpu0.icache.overall_accesses::.cpu0.inst      1335948                       # number of overall (read+write) accesses
system.cpu0.icache.overall_accesses::total      1335948                       # number of overall (read+write) accesses
system.cpu0.icache.demand_miss_rate::.cpu0.inst     0.008274                       # miss rate for demand accesses
system.cpu0.icache.demand_miss_rate::total     0.008274                       # miss rate for demand accesses
system.cpu0.icache.overall_miss_rate::.cpu0.inst     0.008274                       # miss rate for overall accesses
system.cpu0.icache.overall_miss_rate::total     0.008274                       # miss rate for overall accesses
system.cpu0.icache.demand_avg_miss_latency::.cpu0.inst 32935.854519                       # average overall miss latency
system.cpu0.icache.demand_avg_miss_latency::total 32935.854519                       # average overall miss latency
system.cpu0.icache.overall_avg_miss_latency::.cpu0.inst 32935.854519                       # average overall miss latency
system.cpu0.icache.overall_avg_miss_latency::total 32935.854519                       # average overall miss latency
system.cpu0.icache.blocked_cycles::no_mshrs            0                       # number of cycles access was blocked
system.cpu0.icache.blocked_cycles::no_targets            0                       # number of cycles access was blocked
system.cpu0.icache.blocked::no_mshrs                0                       # number of cycles access was blocked
system.cpu0.icache.blocked::no_targets              0                       # number of cycles access was blocked
system.cpu0.icache.avg_blocked_cycles::no_mshrs          nan                       # average number of cycles each access was blocked
system.cpu0.icache.avg_blocked_cycles::no_targets          nan                       # average number of cycles each access was blocked
system.cpu0.icache.writebacks::.writebacks        11037                       # number of writebacks
system.cpu0.icache.writebacks::total            11037                       # number of writebacks
system.cpu0.icache.demand_mshr_misses::.cpu0.inst        11053                       # number of demand (read+write) MSHR misses
system.cpu0.icache.demand_mshr_misses::total        11053                       # number of demand (read+write) MSHR misses
system.cpu0.icache.overall_mshr_misses::.cpu0.inst        11053                       # number of overall MSHR misses
system.cpu0.icache.overall_mshr_misses::total        11053                       # number of overall MSHR misses
system.cpu0.icache.demand_mshr_miss_latency::.cpu0.inst    352987000                       # number of demand (read+write) MSHR miss cycles
system.cpu0.icache.demand_mshr_miss_latency::total    352987000                       # number of demand (read+write) MSHR miss cycles
system.cpu0.icache.overall_mshr_miss_latency::.cpu0.inst    352987000                       # number of overall MSHR miss cycles
system.cpu0.icache.overall_mshr_miss_latency::total    352987000                       # number of overall MSHR miss cycles
system.cpu0.icache.demand_mshr_miss_rate::.cpu0.inst     0.008274                       # mshr miss rate for demand accesses
system.cpu0.icache.demand_mshr_miss_rate::total     0.008274                       # mshr miss rate for demand accesses
system.cpu0.icache.overall_mshr_miss_rate::.cpu0.inst     0.008274                       # mshr miss rate for overall accesses
system.cpu0.icache.overall_mshr_miss_rate::total     0.008274                       # mshr miss rate for overall accesses
system.cpu0.icache.demand_avg_mshr_miss_latency::.cpu0.inst 31935.854519                       # average overall mshr miss latency
system.cpu0.icache.demand_avg_mshr_miss_latency::total 31935.854519                       # average overall mshr miss latency
system.cpu0.icache.overall_avg_mshr_miss_latency::.cpu0.inst 31935.854519                       # average overall mshr miss latency
system.cpu0.icache.overall_avg_mshr_miss_latency::total 31935.854519                       # average overall mshr miss latency
system.cpu0.icache.replacements                 11037                       # number of replacements
system.cpu0.icache.ReadReq_hits::.cpu0.inst      1324895                       # number of ReadReq hits
system.cpu0.icache.ReadReq_hits::total        1324895                       # number of ReadReq hits
system.cpu0.icache.ReadReq_misses::.cpu0.inst        11053                       # number of ReadReq misses
system.cpu0.icache.ReadReq_misses::total        11053                       # number of ReadReq misses
system.cpu0.icache.ReadReq_miss_latency::.cpu0.inst    364040000                       # number of ReadReq miss cycles
system.cpu0.icache.ReadReq_miss_latency::total    364040000                       # number of ReadReq miss cycles
system.cpu0.icache.ReadReq_accesses::.cpu0.inst      1335948                       # number of ReadReq accesses(hits+misses)
system.cpu0.icache.ReadReq_accesses::total      1335948                       # number of ReadReq accesses(hits+misses)
system.cpu0.icache.ReadReq_miss_rate::.cpu0.inst     0.008274                       # miss rate for ReadReq accesses
system.cpu0.icache.ReadReq_miss_rate::total     0.008274                       # miss rate for ReadReq accesses
system.cpu0.icache.ReadReq_avg_miss_latency::.cpu0.inst 32935.854519                       # average ReadReq miss latency
system.cpu0.icache.ReadReq_avg_miss_latency::total 32935.854519                       # average ReadReq miss latency
system.cpu0.icache.ReadReq_mshr_misses::.cpu0.inst        11053                       # number of ReadReq MSHR misses
system.cpu0.icache.ReadReq_mshr_misses::total        11053                       # number of ReadReq MSHR misses
system.cpu0.icache.ReadReq_mshr_miss_latency::.cpu0.inst    352987000                       # number of ReadReq MSHR miss cycles
system.cpu0.icache.ReadReq_mshr_miss_latency::total    352987000                       # number of ReadReq MSHR miss cycles
system.cpu0.icache.ReadReq_mshr_miss_rate::.cpu0.inst     0.008274                       # mshr miss rate for ReadReq accesses
system.cpu0.icache.ReadReq_mshr_miss_rate::total     0.008274                       # mshr miss rate for ReadReq accesses
system.cpu0.icache.ReadReq_avg_mshr_miss_latency::.cpu0.inst 31935.854519                       # average ReadReq mshr miss latency
system.cpu0.icache.ReadReq_avg_mshr_miss_latency::total 31935.854519                       # average ReadReq mshr miss latency
system.cpu0.icache.power_state.pwrStateResidencyTicks::UNDEFINED  33438156500                       # Cumulative time (in ticks) in various power states
system.cpu0.icache.tags.tagsinuse           15.999591                       # Cycle average of tags in use
system.cpu0.icache.tags.total_refs            1335948                       # Total number of references to valid blocks.
system.cpu0.icache.tags.sampled_refs            11053                       # Sample count of references to valid blocks.
system.cpu0.icache.tags.avg_refs           120.867457                       # Average number of references to valid blocks.
system.cpu0.icache.tags.warmup_cycle            87500                       # Cycle when the warmup percentage was hit.
system.cpu0.icache.tags.occ_blocks::.cpu0.inst    15.999591                       # Average occupied blocks per requestor
system.cpu0.icache.tags.occ_percent::.cpu0.inst     0.999974                       # Average percentage of cache occupancy
system.cpu0.icache.tags.occ_percent::total     0.999974                       # Average percentage of cache occupancy
system.cpu0.icache.tags.occ_task_id_blocks::1024           16                       # Occupied blocks per task id
system.cpu0.icache.tags.age_task_id_blocks_1024::4           16                       # Occupied blocks per task id
system.cpu0.icache.tags.occ_task_id_percent::1024            1                       # Percentage of cache occupancy per task id
system.cpu0.icache.tags.tag_accesses         10698637                       # Number of tag accesses
system.cpu0.icache.tags.data_accesses        10698637                       # Number of data accesses
system.cpu0.icache.tags.power_state.pwrStateResidencyTicks::UNDEFINED  33438156500                       # Cumulative time (in ticks) in various power states
system.cpu0.dtb.walker.power_state.pwrStateResidencyTicks::UNDEFINED  33438156500                       # Cumulative time (in ticks) in various power states
system.cpu0.interrupts.clk_domain.clock          8000                       # Clock period in ticks
system.cpu0.itb_walker_cache.blocked_cycles::no_mshrs            0                       # number of cycles access was blocked
system.cpu0.itb_walker_cache.blocked_cycles::no_targets            0                       # number of cycles access was blocked
system.cpu0.itb_walker_cache.blocked::no_mshrs            0                       # number of cycles access was blocked
system.cpu0.itb_walker_cache.blocked::no_targets            0                       # number of cycles access was blocked
system.cpu0.itb_walker_cache.avg_blocked_cycles::no_mshrs          nan                       # average number of cycles each access was blocked
system.cpu0.itb_walker_cache.avg_blocked_cycles::no_targets          nan                       # average number of cycles each access was blocked
system.cpu0.itb_walker_cache.replacements            0                       # number of replacements
system.cpu0.itb_walker_cache.power_state.pwrStateResidencyTicks::UNDEFINED  33438156500                       # Cumulative time (in ticks) in various power states
system.cpu0.itb_walker_cache.tags.tagsinuse            0                       # Cycle average of tags in use
system.cpu0.itb_walker_cache.tags.total_refs            0                       # Total number of references to valid blocks.
system.cpu0.itb_walker_cache.tags.sampled_refs            0                       # Sample count of references to valid blocks.
system.cpu0.itb_walker_cache.tags.avg_refs          nan                       # Average number of references to valid blocks.
system.cpu0.itb_walker_cache.tags.warmup_cycle            0                       # Cycle when the warmup percentage was hit.
system.cpu0.itb_walker_cache.tags.tag_accesses            0                       # Number of tag accesses
system.cpu0.itb_walker_cache.tags.data_accesses            0                       # Number of data accesses
system.cpu0.itb_walker_cache.tags.power_state.pwrStateResidencyTicks::UNDEFINED  33438156500                       # Cumulative time (in ticks) in various power states
system.cpu0.dtb_walker_cache.blocked_cycles::no_mshrs            0                       # number of cycles access was blocked
system.cpu0.dtb_walker_cache.blocked_cycles::no_targets            0                       # number of cycles access was blocked
system.cpu0.dtb_walker_cache.blocked::no_mshrs            0                       # number of cycles access was blocked
system.cpu0.dtb_walker_cache.blocked::no_targets            0                       # number of cycles access was blocked
system.cpu0.dtb_walker_cache.avg_blocked_cycles::no_mshrs          nan                       # average number of cycles each access was blocked
system.cpu0.dtb_walker_cache.avg_blocked_cycles::no_targets          nan                       # average number of cycles each access was blocked
system.cpu0.dtb_walker_cache.replacements            0                       # number of replacements
system.cpu0.dtb_walker_cache.power_state.pwrStateResidencyTicks::UNDEFINED  33438156500                       # Cumulative time (in ticks) in various power states
system.cpu0.dtb_walker_cache.tags.tagsinuse            0                       # Cycle average of tags in use
system.cpu0.dtb_walker_cache.tags.total_refs            0                       # Total number of references to valid blocks.
system.cpu0.dtb_walker_cache.tags.sampled_refs            0                       # Sample count of references to valid blocks.
system.cpu0.dtb_walker_cache.tags.avg_refs          nan                       # Average number of references to valid blocks.
system.cpu0.dtb_walker_cache.tags.warmup_cycle            0                       # Cycle when the warmup percentage was hit.
system.cpu0.dtb_walker_cache.tags.tag_accesses            0                       # Number of tag accesses
system.cpu0.dtb_walker_cache.tags.data_accesses            0                       # Number of data accesses
system.cpu0.dtb_walker_cache.tags.power_state.pwrStateResidencyTicks::UNDEFINED  33438156500                       # Cumulative time (in ticks) in various power states
system.cpu0.dcache.demand_hits::.cpu0.data      4165048                       # number of demand (read+write) hits
system.cpu0.dcache.demand_hits::total         4165048                       # number of demand (read+write) hits
system.cpu0.dcache.overall_hits::.cpu0.data      4165048                       # number of overall hits
system.cpu0.dcache.overall_hits::total        4165048                       # number of overall hits
system.cpu0.dcache.demand_misses::.cpu0.data       835089                       # number of demand (read+write) misses
system.cpu0.dcache.demand_misses::total        835089                       # number of demand (read+write) misses
system.cpu0.dcache.overall_misses::.cpu0.data       835089                       # number of overall misses
system.cpu0.dcache.overall_misses::total       835089                       # number of overall misses
system.cpu0.dcache.demand_miss_latency::.cpu0.data  56954760500                       # number of demand (read+write) miss cycles
system.cpu0.dcache.demand_miss_latency::total  56954760500                       # number of demand (read+write) miss cycles
system.cpu0.dcache.overall_miss_latency::.cpu0.data  56954760500                       # number of overall miss cycles
system.cpu0.dcache.overall_miss_latency::total  56954760500                       # number of overall miss cycles
system.cpu0.dcache.demand_accesses::.cpu0.data      5000137                       # number of demand (read+write) accesses
system.cpu0.dcache.demand_accesses::total      5000137                       # number of demand (read+write) accesses
system.cpu0.dcache.overall_accesses::.cpu0.data      5000137                       # number of overall (read+write) accesses
system.cpu0.dcache.overall_accesses::total      5000137                       # number of overall (read+write) accesses
system.cpu0.dcache.demand_miss_rate::.cpu0.data     0.167013                       # miss rate for demand accesses
system.cpu0.dcache.demand_miss_rate::total     0.167013                       # miss rate for demand accesses
system.cpu0.dcache.overall_miss_rate::.cpu0.data     0.167013                       # miss rate for overall accesses
system.cpu0.dcache.overall_miss_rate::total     0.167013                       # miss rate for overall accesses
system.cpu0.dcache.demand_avg_miss_latency::.cpu0.data 68202.024575                       # average overall miss latency
system.cpu0.dcache.demand_avg_miss_latency::total 68202.024575                       # average overall miss latency
system.cpu0.dcache.overall_avg_miss_latency::.cpu0.data 68202.024575                       # average overall miss latency
system.cpu0.dcache.overall_avg_miss_latency::total 68202.024575                       # average overall miss latency
system.cpu0.dcache.blocked_cycles::no_mshrs            0                       # number of cycles access was blocked
system.cpu0.dcache.blocked_cycles::no_targets            0                       # number of cycles access was blocked
system.cpu0.dcache.blocked::no_mshrs                0                       # number of cycles access was blocked
system.cpu0.dcache.blocked::no_targets              0                       # number of cycles access was blocked
system.cpu0.dcache.avg_blocked_cycles::no_mshrs          nan                       # average number of cycles each access was blocked
system.cpu0.dcache.avg_blocked_cycles::no_targets          nan                       # average number of cycles each access was blocked
system.cpu0.dcache.writebacks::.writebacks       518633                       # number of writebacks
system.cpu0.dcache.writebacks::total           518633                       # number of writebacks
system.cpu0.dcache.demand_mshr_hits::.cpu0.data       309847                       # number of demand (read+write) MSHR hits
system.cpu0.dcache.demand_mshr_hits::total       309847                       # number of demand (read+write) MSHR hits
system.cpu0.dcache.overall_mshr_hits::.cpu0.data       309847                       # number of overall MSHR hits
system.cpu0.dcache.overall_mshr_hits::total       309847                       # number of overall MSHR hits
system.cpu0.dcache.demand_mshr_misses::.cpu0.data       525242                       # number of demand (read+write) MSHR misses
system.cpu0.dcache.demand_mshr_misses::total       525242                       # number of demand (read+write) MSHR misses
system.cpu0.dcache.overall_mshr_misses::.cpu0.data       525242                       # number of overall MSHR misses
system.cpu0.dcache.overall_mshr_misses::total       525242                       # number of overall MSHR misses
system.cpu0.dcache.demand_mshr_miss_latency::.cpu0.data  45028366500                       # number of demand (read+write) MSHR miss cycles
system.cpu0.dcache.demand_mshr_miss_latency::total  45028366500                       # number of demand (read+write) MSHR miss cycles
system.cpu0.dcache.overall_mshr_miss_latency::.cpu0.data  45028366500                       # number of overall MSHR miss cycles
system.cpu0.dcache.overall_mshr_miss_latency::total  45028366500                       # number of overall MSHR miss cycles
system.cpu0.dcache.demand_mshr_miss_rate::.cpu0.data     0.105046                       # mshr miss rate for demand accesses
system.cpu0.dcache.demand_mshr_miss_rate::total     0.105046                       # mshr miss rate for demand accesses
system.cpu0.dcache.overall_mshr_miss_rate::.cpu0.data     0.105046                       # mshr miss rate for overall accesses
system.cpu0.dcache.overall_mshr_miss_rate::total     0.105046                       # mshr miss rate for overall accesses
system.cpu0.dcache.demand_avg_mshr_miss_latency::.cpu0.data 85728.800248                       # average overall mshr miss latency
system.cpu0.dcache.demand_avg_mshr_miss_latency::total 85728.800248                       # average overall mshr miss latency
system.cpu0.dcache.overall_avg_mshr_miss_latency::.cpu0.data 85728.800248                       # average overall mshr miss latency
system.cpu0.dcache.overall_avg_mshr_miss_latency::total 85728.800248                       # average overall mshr miss latency
system.cpu0.dcache.replacements                525224                       # number of replacements
system.cpu0.dcache.ReadReq_hits::.cpu0.data       864681                       # number of ReadReq hits
system.cpu0.dcache.ReadReq_hits::total         864681                       # number of ReadReq hits
system.cpu0.dcache.ReadReq_misses::.cpu0.data         9381                       # number of ReadReq misses
system.cpu0.dcache.ReadReq_misses::total         9381                       # number of ReadReq misses
system.cpu0.dcache.ReadReq_miss_latency::.cpu0.data    466081000                       # number of ReadReq miss cycles
system.cpu0.dcache.ReadReq_miss_latency::total    466081000                       # number of ReadReq miss cycles
system.cpu0.dcache.ReadReq_accesses::.cpu0.data       874062                       # number of ReadReq accesses(hits+misses)
system.cpu0.dcache.ReadReq_accesses::total       874062                       # number of ReadReq accesses(hits+misses)
system.cpu0.dcache.ReadReq_miss_rate::.cpu0.data     0.010733                       # miss rate for ReadReq accesses
system.cpu0.dcache.ReadReq_miss_rate::total     0.010733                       # miss rate for ReadReq accesses
system.cpu0.dcache.ReadReq_avg_miss_latency::.cpu0.data 49683.509221                       # average ReadReq miss latency
system.cpu0.dcache.ReadReq_avg_miss_latency::total 49683.509221                       # average ReadReq miss latency
system.cpu0.dcache.ReadReq_mshr_hits::.cpu0.data          335                       # number of ReadReq MSHR hits
system.cpu0.dcache.ReadReq_mshr_hits::total          335                       # number of ReadReq MSHR hits
system.cpu0.dcache.ReadReq_mshr_misses::.cpu0.data         9046                       # number of ReadReq MSHR misses
system.cpu0.dcache.ReadReq_mshr_misses::total         9046                       # number of ReadReq MSHR misses
system.cpu0.dcache.ReadReq_mshr_miss_latency::.cpu0.data    440245500                       # number of ReadReq MSHR miss cycles
system.cpu0.dcache.ReadReq_mshr_miss_latency::total    440245500                       # number of ReadReq MSHR miss cycles
system.cpu0.dcache.ReadReq_mshr_miss_rate::.cpu0.data     0.010349                       # mshr miss rate for ReadReq accesses
system.cpu0.dcache.ReadReq_mshr_miss_rate::total     0.010349                       # mshr miss rate for ReadReq accesses
system.cpu0.dcache.ReadReq_avg_mshr_miss_latency::.cpu0.data 48667.422065                       # average ReadReq mshr miss latency
system.cpu0.dcache.ReadReq_avg_mshr_miss_latency::total 48667.422065                       # average ReadReq mshr miss latency
system.cpu0.dcache.WriteReq_hits::.cpu0.data      3300367                       # number of WriteReq hits
system.cpu0.dcache.WriteReq_hits::total       3300367                       # number of WriteReq hits
system.cpu0.dcache.WriteReq_misses::.cpu0.data       825708                       # number of WriteReq misses
system.cpu0.dcache.WriteReq_misses::total       825708                       # number of WriteReq misses
system.cpu0.dcache.WriteReq_miss_latency::.cpu0.data  56488679500                       # number of WriteReq miss cycles
system.cpu0.dcache.WriteReq_miss_latency::total  56488679500                       # number of WriteReq miss cycles
system.cpu0.dcache.WriteReq_accesses::.cpu0.data      4126075                       # number of WriteReq accesses(hits+misses)
system.cpu0.dcache.WriteReq_accesses::total      4126075                       # number of WriteReq accesses(hits+misses)
system.cpu0.dcache.WriteReq_miss_rate::.cpu0.data     0.200119                       # miss rate for WriteReq accesses
system.cpu0.dcache.WriteReq_miss_rate::total     0.200119                       # miss rate for WriteReq accesses
system.cpu0.dcache.WriteReq_avg_miss_latency::.cpu0.data 68412.416375                       # average WriteReq miss latency
system.cpu0.dcache.WriteReq_avg_miss_latency::total 68412.416375                       # average WriteReq miss latency
system.cpu0.dcache.WriteReq_mshr_hits::.cpu0.data       309512                       # number of WriteReq MSHR hits
system.cpu0.dcache.WriteReq_mshr_hits::total       309512                       # number of WriteReq MSHR hits
system.cpu0.dcache.WriteReq_mshr_misses::.cpu0.data       516196                       # number of WriteReq MSHR misses
system.cpu0.dcache.WriteReq_mshr_misses::total       516196                       # number of WriteReq MSHR misses
system.cpu0.dcache.WriteReq_mshr_miss_latency::.cpu0.data  44588121000                       # number of WriteReq MSHR miss cycles
system.cpu0.dcache.WriteReq_mshr_miss_latency::total  44588121000                       # number of WriteReq MSHR miss cycles
system.cpu0.dcache.WriteReq_mshr_miss_rate::.cpu0.data     0.125106                       # mshr miss rate for WriteReq accesses
system.cpu0.dcache.WriteReq_mshr_miss_rate::total     0.125106                       # mshr miss rate for WriteReq accesses
system.cpu0.dcache.WriteReq_avg_mshr_miss_latency::.cpu0.data 86378.276856                       # average WriteReq mshr miss latency
system.cpu0.dcache.WriteReq_avg_mshr_miss_latency::total 86378.276856                       # average WriteReq mshr miss latency
system.cpu0.dcache.power_state.pwrStateResidencyTicks::UNDEFINED  33438156500                       # Cumulative time (in ticks) in various power states
system.cpu0.dcache.tags.tagsinuse           15.999617                       # Cycle average of tags in use
system.cpu0.dcache.tags.total_refs            4690288                       # Total number of references to valid blocks.
system.cpu0.dcache.tags.sampled_refs           525240                       # Sample count of references to valid blocks.
system.cpu0.dcache.tags.avg_refs             8.929800                       # Average number of references to valid blocks.
system.cpu0.dcache.tags.warmup_cycle           178500                       # Cycle when the warmup percentage was hit.
system.cpu0.dcache.tags.occ_blocks::.cpu0.data    15.999617                       # Average occupied blocks per requestor
system.cpu0.dcache.tags.occ_percent::.cpu0.data     0.999976                       # Average percentage of cache occupancy
system.cpu0.dcache.tags.occ_percent::total     0.999976                       # Average percentage of cache occupancy
system.cpu0.dcache.tags.occ_task_id_blocks::1024           16                       # Occupied blocks per task id
system.cpu0.dcache.tags.age_task_id_blocks_1024::0           14                       # Occupied blocks per task id
system.cpu0.dcache.tags.age_task_id_blocks_1024::4            2                       # Occupied blocks per task id
system.cpu0.dcache.tags.occ_task_id_percent::1024            1                       # Percentage of cache occupancy per task id
system.cpu0.dcache.tags.tag_accesses         40526336                       # Number of tag accesses
system.cpu0.dcache.tags.data_accesses        40526336                       # Number of data accesses
system.cpu0.dcache.tags.power_state.pwrStateResidencyTicks::UNDEFINED  33438156500                       # Cumulative time (in ticks) in various power states
system.cpu0.power_state.pwrStateResidencyTicks::ON  33438156500                       # Cumulative time (in ticks) in various power states
system.cpu0.itb.walker.power_state.pwrStateResidencyTicks::UNDEFINED  33438156500                       # Cumulative time (in ticks) in various power states
system.cpu1.icache.demand_hits::.cpu1.inst      1730732                       # number of demand (read+write) hits
system.cpu1.icache.demand_hits::total         1730732                       # number of demand (read+write) hits
system.cpu1.icache.overall_hits::.cpu1.inst      1730732                       # number of overall hits
system.cpu1.icache.overall_hits::total        1730732                       # number of overall hits
system.cpu1.icache.demand_misses::.cpu1.inst      1635824                       # number of demand (read+write) misses
system.cpu1.icache.demand_misses::total       1635824                       # number of demand (read+write) misses
system.cpu1.icache.overall_misses::.cpu1.inst      1635824                       # number of overall misses
system.cpu1.icache.overall_misses::total      1635824                       # number of overall misses
system.cpu1.icache.demand_miss_latency::.cpu1.inst  21477747000                       # number of demand (read+write) miss cycles
system.cpu1.icache.demand_miss_latency::total  21477747000                       # number of demand (read+write) miss cycles
system.cpu1.icache.overall_miss_latency::.cpu1.inst  21477747000                       # number of overall miss cycles
system.cpu1.icache.overall_miss_latency::total  21477747000                       # number of overall miss cycles
system.cpu1.icache.demand_accesses::.cpu1.inst      3366556                       # number of demand (read+write) accesses
system.cpu1.icache.demand_accesses::total      3366556                       # number of demand (read+write) accesses
system.cpu1.icache.overall_accesses::.cpu1.inst      3366556                       # number of overall (read+write) accesses
system.cpu1.icache.overall_accesses::total      3366556                       # number of overall (read+write) accesses
system.cpu1.icache.demand_miss_rate::.cpu1.inst     0.485904                       # miss rate for demand accesses
system.cpu1.icache.demand_miss_rate::total     0.485904                       # miss rate for demand accesses
system.cpu1.icache.overall_miss_rate::.cpu1.inst     0.485904                       # miss rate for overall accesses
system.cpu1.icache.overall_miss_rate::total     0.485904                       # miss rate for overall accesses
system.cpu1.icache.demand_avg_miss_latency::.cpu1.inst 13129.619690                       # average overall miss latency
system.cpu1.icache.demand_avg_miss_latency::total 13129.619690                       # average overall miss latency
system.cpu1.icache.overall_avg_miss_latency::.cpu1.inst 13129.619690                       # average overall miss latency
system.cpu1.icache.overall_avg_miss_latency::total 13129.619690                       # average overall miss latency
system.cpu1.icache.blocked_cycles::no_mshrs            0                       # number of cycles access was blocked
system.cpu1.icache.blocked_cycles::no_targets            0                       # number of cycles access was blocked
system.cpu1.icache.blocked::no_mshrs                0                       # number of cycles access was blocked
system.cpu1.icache.blocked::no_targets              0                       # number of cycles access was blocked
system.cpu1.icache.avg_blocked_cycles::no_mshrs          nan                       # average number of cycles each access was blocked
system.cpu1.icache.avg_blocked_cycles::no_targets          nan                       # average number of cycles each access was blocked
system.cpu1.icache.writebacks::.writebacks      1635808                       # number of writebacks
system.cpu1.icache.writebacks::total          1635808                       # number of writebacks
system.cpu1.icache.demand_mshr_misses::.cpu1.inst      1635824                       # number of demand (read+write) MSHR misses
system.cpu1.icache.demand_mshr_misses::total      1635824                       # number of demand (read+write) MSHR misses
system.cpu1.icache.overall_mshr_misses::.cpu1.inst      1635824                       # number of overall MSHR misses
system.cpu1.icache.overall_mshr_misses::total      1635824                       # number of overall MSHR misses
system.cpu1.icache.demand_mshr_miss_latency::.cpu1.inst  19841923000                       # number of demand (read+write) MSHR miss cycles
system.cpu1.icache.demand_mshr_miss_latency::total  19841923000                       # number of demand (read+write) MSHR miss cycles
system.cpu1.icache.overall_mshr_miss_latency::.cpu1.inst  19841923000                       # number of overall MSHR miss cycles
system.cpu1.icache.overall_mshr_miss_latency::total  19841923000                       # number of overall MSHR miss cycles
system.cpu1.icache.demand_mshr_miss_rate::.cpu1.inst     0.485904                       # mshr miss rate for demand accesses
system.cpu1.icache.demand_mshr_miss_rate::total     0.485904                       # mshr miss rate for demand accesses
system.cpu1.icache.overall_mshr_miss_rate::.cpu1.inst     0.485904                       # mshr miss rate for overall accesses
system.cpu1.icache.overall_mshr_miss_rate::total     0.485904                       # mshr miss rate for overall accesses
system.cpu1.icache.demand_avg_mshr_miss_latency::.cpu1.inst 12129.619690                       # average overall mshr miss latency
system.cpu1.icache.demand_avg_mshr_miss_latency::total 12129.619690                       # average overall mshr miss latency
system.cpu1.icache.overall_avg_mshr_miss_latency::.cpu1.inst 12129.619690                       # average overall mshr miss latency
system.cpu1.icache.overall_avg_mshr_miss_latency::total 12129.619690                       # average overall mshr miss latency
system.cpu1.icache.replacements               1635808                       # number of replacements
system.cpu1.icache.ReadReq_hits::.cpu1.inst      1730732                       # number of ReadReq hits
system.cpu1.icache.ReadReq_hits::total        1730732                       # number of ReadReq hits
system.cpu1.icache.ReadReq_misses::.cpu1.inst      1635824                       # number of ReadReq misses
system.cpu1.icache.ReadReq_misses::total      1635824                       # number of ReadReq misses
system.cpu1.icache.ReadReq_miss_latency::.cpu1.inst  21477747000                       # number of ReadReq miss cycles
system.cpu1.icache.ReadReq_miss_latency::total  21477747000                       # number of ReadReq miss cycles
system.cpu1.icache.ReadReq_accesses::.cpu1.inst      3366556                       # number of ReadReq accesses(hits+misses)
system.cpu1.icache.ReadReq_accesses::total      3366556                       # number of ReadReq accesses(hits+misses)
system.cpu1.icache.ReadReq_miss_rate::.cpu1.inst     0.485904                       # miss rate for ReadReq accesses
system.cpu1.icache.ReadReq_miss_rate::total     0.485904                       # miss rate for ReadReq accesses
system.cpu1.icache.ReadReq_avg_miss_latency::.cpu1.inst 13129.619690                       # average ReadReq miss latency
system.cpu1.icache.ReadReq_avg_miss_latency::total 13129.619690                       # average ReadReq miss latency
system.cpu1.icache.ReadReq_mshr_misses::.cpu1.inst      1635824                       # number of ReadReq MSHR misses
system.cpu1.icache.ReadReq_mshr_misses::total      1635824                       # number of ReadReq MSHR misses
system.cpu1.icache.ReadReq_mshr_miss_latency::.cpu1.inst  19841923000                       # number of ReadReq MSHR miss cycles
system.cpu1.icache.ReadReq_mshr_miss_latency::total  19841923000                       # number of ReadReq MSHR miss cycles
system.cpu1.icache.ReadReq_mshr_miss_rate::.cpu1.inst     0.485904                       # mshr miss rate for ReadReq accesses
system.cpu1.icache.ReadReq_mshr_miss_rate::total     0.485904                       # mshr miss rate for ReadReq accesses
system.cpu1.icache.ReadReq_avg_mshr_miss_latency::.cpu1.inst 12129.619690                       # average ReadReq mshr miss latency
system.cpu1.icache.ReadReq_avg_mshr_miss_latency::total 12129.619690                       # average ReadReq mshr miss latency
system.cpu1.icache.power_state.pwrStateResidencyTicks::UNDEFINED  33438156500                       # Cumulative time (in ticks) in various power states
system.cpu1.icache.tags.tagsinuse           15.999573                       # Cycle average of tags in use
system.cpu1.icache.tags.total_refs            3366556                       # Total number of references to valid blocks.
system.cpu1.icache.tags.sampled_refs          1635824                       # Sample count of references to valid blocks.
system.cpu1.icache.tags.avg_refs             2.058018                       # Average number of references to valid blocks.
system.cpu1.icache.tags.warmup_cycle            94500                       # Cycle when the warmup percentage was hit.
system.cpu1.icache.tags.occ_blocks::.cpu1.inst    15.999573                       # Average occupied blocks per requestor
system.cpu1.icache.tags.occ_percent::.cpu1.inst     0.999973                       # Average percentage of cache occupancy
system.cpu1.icache.tags.occ_percent::total     0.999973                       # Average percentage of cache occupancy
system.cpu1.icache.tags.occ_task_id_blocks::1024           16                       # Occupied blocks per task id
system.cpu1.icache.tags.age_task_id_blocks_1024::0           16                       # Occupied blocks per task id
system.cpu1.icache.tags.occ_task_id_percent::1024            1                       # Percentage of cache occupancy per task id
system.cpu1.icache.tags.tag_accesses         28568272                       # Number of tag accesses
system.cpu1.icache.tags.data_accesses        28568272                       # Number of data accesses
system.cpu1.icache.tags.power_state.pwrStateResidencyTicks::UNDEFINED  33438156500                       # Cumulative time (in ticks) in various power states
system.cpu1.dtb.walker.power_state.pwrStateResidencyTicks::UNDEFINED  33438156500                       # Cumulative time (in ticks) in various power states
system.cpu1.interrupts.clk_domain.clock          8000                       # Clock period in ticks
system.cpu1.itb_walker_cache.blocked_cycles::no_mshrs            0                       # number of cycles access was blocked
system.cpu1.itb_walker_cache.blocked_cycles::no_targets            0                       # number of cycles access was blocked
system.cpu1.itb_walker_cache.blocked::no_mshrs            0                       # number of cycles access was blocked
system.cpu1.itb_walker_cache.blocked::no_targets            0                       # number of cycles access was blocked
system.cpu1.itb_walker_cache.avg_blocked_cycles::no_mshrs          nan                       # average number of cycles each access was blocked
system.cpu1.itb_walker_cache.avg_blocked_cycles::no_targets          nan                       # average number of cycles each access was blocked
system.cpu1.itb_walker_cache.replacements            0                       # number of replacements
system.cpu1.itb_walker_cache.power_state.pwrStateResidencyTicks::UNDEFINED  33438156500                       # Cumulative time (in ticks) in various power states
system.cpu1.itb_walker_cache.tags.tagsinuse            0                       # Cycle average of tags in use
system.cpu1.itb_walker_cache.tags.total_refs            0                       # Total number of references to valid blocks.
system.cpu1.itb_walker_cache.tags.sampled_refs            0                       # Sample count of references to valid blocks.
system.cpu1.itb_walker_cache.tags.avg_refs          nan                       # Average number of references to valid blocks.
system.cpu1.itb_walker_cache.tags.warmup_cycle            0                       # Cycle when the warmup percentage was hit.
system.cpu1.itb_walker_cache.tags.tag_accesses            0                       # Number of tag accesses
system.cpu1.itb_walker_cache.tags.data_accesses            0                       # Number of data accesses
system.cpu1.itb_walker_cache.tags.power_state.pwrStateResidencyTicks::UNDEFINED  33438156500                       # Cumulative time (in ticks) in various power states
system.cpu1.dtb_walker_cache.blocked_cycles::no_mshrs            0                       # number of cycles access was blocked
system.cpu1.dtb_walker_cache.blocked_cycles::no_targets            0                       # number of cycles access was blocked
system.cpu1.dtb_walker_cache.blocked::no_mshrs            0                       # number of cycles access was blocked
system.cpu1.dtb_walker_cache.blocked::no_targets            0                       # number of cycles access was blocked
system.cpu1.dtb_walker_cache.avg_blocked_cycles::no_mshrs          nan                       # average number of cycles each access was blocked
system.cpu1.dtb_walker_cache.avg_blocked_cycles::no_targets          nan                       # average number of cycles each access was blocked
system.cpu1.dtb_walker_cache.replacements            0                       # number of replacements
system.cpu1.dtb_walker_cache.power_state.pwrStateResidencyTicks::UNDEFINED  33438156500                       # Cumulative time (in ticks) in various power states
system.cpu1.dtb_walker_cache.tags.tagsinuse            0                       # Cycle average of tags in use
system.cpu1.dtb_walker_cache.tags.total_refs            0                       # Total number of references to valid blocks.
system.cpu1.dtb_walker_cache.tags.sampled_refs            0                       # Sample count of references to valid blocks.
system.cpu1.dtb_walker_cache.tags.avg_refs          nan                       # Average number of references to valid blocks.
system.cpu1.dtb_walker_cache.tags.warmup_cycle            0                       # Cycle when the warmup percentage was hit.
system.cpu1.dtb_walker_cache.tags.tag_accesses            0                       # Number of tag accesses
system.cpu1.dtb_walker_cache.tags.data_accesses            0                       # Number of data accesses
system.cpu1.dtb_walker_cache.tags.power_state.pwrStateResidencyTicks::UNDEFINED  33438156500                       # Cumulative time (in ticks) in various power states
system.cpu1.dcache.demand_hits::.cpu1.data      3401871                       # number of demand (read+write) hits
system.cpu1.dcache.demand_hits::total         3401871                       # number of demand (read+write) hits
system.cpu1.dcache.overall_hits::.cpu1.data      3401871                       # number of overall hits
system.cpu1.dcache.overall_hits::total        3401871                       # number of overall hits
system.cpu1.dcache.demand_misses::.cpu1.data       722807                       # number of demand (read+write) misses
system.cpu1.dcache.demand_misses::total        722807                       # number of demand (read+write) misses
system.cpu1.dcache.overall_misses::.cpu1.data       722807                       # number of overall misses
system.cpu1.dcache.overall_misses::total       722807                       # number of overall misses
system.cpu1.dcache.demand_miss_latency::.cpu1.data  14471902000                       # number of demand (read+write) miss cycles
system.cpu1.dcache.demand_miss_latency::total  14471902000                       # number of demand (read+write) miss cycles
system.cpu1.dcache.overall_miss_latency::.cpu1.data  14471902000                       # number of overall miss cycles
system.cpu1.dcache.overall_miss_latency::total  14471902000                       # number of overall miss cycles
system.cpu1.dcache.demand_accesses::.cpu1.data      4124678                       # number of demand (read+write) accesses
system.cpu1.dcache.demand_accesses::total      4124678                       # number of demand (read+write) accesses
system.cpu1.dcache.overall_accesses::.cpu1.data      4124678                       # number of overall (read+write) accesses
system.cpu1.dcache.overall_accesses::total      4124678                       # number of overall (read+write) accesses
system.cpu1.dcache.demand_miss_rate::.cpu1.data     0.175240                       # miss rate for demand accesses
system.cpu1.dcache.demand_miss_rate::total     0.175240                       # miss rate for demand accesses
system.cpu1.dcache.overall_miss_rate::.cpu1.data     0.175240                       # miss rate for overall accesses
system.cpu1.dcache.overall_miss_rate::total     0.175240                       # miss rate for overall accesses
system.cpu1.dcache.demand_avg_miss_latency::.cpu1.data 20021.806651                       # average overall miss latency
system.cpu1.dcache.demand_avg_miss_latency::total 20021.806651                       # average overall miss latency
system.cpu1.dcache.overall_avg_miss_latency::.cpu1.data 20021.806651                       # average overall miss latency
system.cpu1.dcache.overall_avg_miss_latency::total 20021.806651                       # average overall miss latency
system.cpu1.dcache.blocked_cycles::no_mshrs            0                       # number of cycles access was blocked
system.cpu1.dcache.blocked_cycles::no_targets            0                       # number of cycles access was blocked
system.cpu1.dcache.blocked::no_mshrs                0                       # number of cycles access was blocked
system.cpu1.dcache.blocked::no_targets              0                       # number of cycles access was blocked
system.cpu1.dcache.avg_blocked_cycles::no_mshrs          nan                       # average number of cycles each access was blocked
system.cpu1.dcache.avg_blocked_cycles::no_targets          nan                       # average number of cycles each access was blocked
system.cpu1.dcache.writebacks::.writebacks       414553                       # number of writebacks
system.cpu1.dcache.writebacks::total           414553                       # number of writebacks
system.cpu1.dcache.demand_mshr_hits::.cpu1.data        85459                       # number of demand (read+write) MSHR hits
system.cpu1.dcache.demand_mshr_hits::total        85459                       # number of demand (read+write) MSHR hits
system.cpu1.dcache.overall_mshr_hits::.cpu1.data        85459                       # number of overall MSHR hits
system.cpu1.dcache.overall_mshr_hits::total        85459                       # number of overall MSHR hits
system.cpu1.dcache.demand_mshr_misses::.cpu1.data       637348                       # number of demand (read+write) MSHR misses
system.cpu1.dcache.demand_mshr_misses::total       637348                       # number of demand (read+write) MSHR misses
system.cpu1.dcache.overall_mshr_misses::.cpu1.data       637348                       # number of overall MSHR misses
system.cpu1.dcache.overall_mshr_misses::total       637348                       # number of overall MSHR misses
system.cpu1.dcache.demand_mshr_miss_latency::.cpu1.data  11337221500                       # number of demand (read+write) MSHR miss cycles
system.cpu1.dcache.demand_mshr_miss_latency::total  11337221500                       # number of demand (read+write) MSHR miss cycles
system.cpu1.dcache.overall_mshr_miss_latency::.cpu1.data  11337221500                       # number of overall MSHR miss cycles
system.cpu1.dcache.overall_mshr_miss_latency::total  11337221500                       # number of overall MSHR miss cycles
system.cpu1.dcache.demand_mshr_miss_rate::.cpu1.data     0.154521                       # mshr miss rate for demand accesses
system.cpu1.dcache.demand_mshr_miss_rate::total     0.154521                       # mshr miss rate for demand accesses
system.cpu1.dcache.overall_mshr_miss_rate::.cpu1.data     0.154521                       # mshr miss rate for overall accesses
system.cpu1.dcache.overall_mshr_miss_rate::total     0.154521                       # mshr miss rate for overall accesses
system.cpu1.dcache.demand_avg_mshr_miss_latency::.cpu1.data 17788.118108                       # average overall mshr miss latency
system.cpu1.dcache.demand_avg_mshr_miss_latency::total 17788.118108                       # average overall mshr miss latency
system.cpu1.dcache.overall_avg_mshr_miss_latency::.cpu1.data 17788.118108                       # average overall mshr miss latency
system.cpu1.dcache.overall_avg_mshr_miss_latency::total 17788.118108                       # average overall mshr miss latency
system.cpu1.dcache.replacements                637332                       # number of replacements
system.cpu1.dcache.ReadReq_hits::.cpu1.data      1963504                       # number of ReadReq hits
system.cpu1.dcache.ReadReq_hits::total        1963504                       # number of ReadReq hits
system.cpu1.dcache.ReadReq_misses::.cpu1.data       466789                       # number of ReadReq misses
system.cpu1.dcache.ReadReq_misses::total       466789                       # number of ReadReq misses
system.cpu1.dcache.ReadReq_miss_latency::.cpu1.data   7012957500                       # number of ReadReq miss cycles
system.cpu1.dcache.ReadReq_miss_latency::total   7012957500                       # number of ReadReq miss cycles
system.cpu1.dcache.ReadReq_accesses::.cpu1.data      2430293                       # number of ReadReq accesses(hits+misses)
system.cpu1.dcache.ReadReq_accesses::total      2430293                       # number of ReadReq accesses(hits+misses)
system.cpu1.dcache.ReadReq_miss_rate::.cpu1.data     0.192071                       # miss rate for ReadReq accesses
system.cpu1.dcache.ReadReq_miss_rate::total     0.192071                       # miss rate for ReadReq accesses
system.cpu1.dcache.ReadReq_avg_miss_latency::.cpu1.data 15023.827682                       # average ReadReq miss latency
system.cpu1.dcache.ReadReq_avg_miss_latency::total 15023.827682                       # average ReadReq miss latency
system.cpu1.dcache.ReadReq_mshr_hits::.cpu1.data        18095                       # number of ReadReq MSHR hits
system.cpu1.dcache.ReadReq_mshr_hits::total        18095                       # number of ReadReq MSHR hits
system.cpu1.dcache.ReadReq_mshr_misses::.cpu1.data       448694                       # number of ReadReq MSHR misses
system.cpu1.dcache.ReadReq_mshr_misses::total       448694                       # number of ReadReq MSHR misses
system.cpu1.dcache.ReadReq_mshr_miss_latency::.cpu1.data   6303828000                       # number of ReadReq MSHR miss cycles
system.cpu1.dcache.ReadReq_mshr_miss_latency::total   6303828000                       # number of ReadReq MSHR miss cycles
system.cpu1.dcache.ReadReq_mshr_miss_rate::.cpu1.data     0.184625                       # mshr miss rate for ReadReq accesses
system.cpu1.dcache.ReadReq_mshr_miss_rate::total     0.184625                       # mshr miss rate for ReadReq accesses
system.cpu1.dcache.ReadReq_avg_mshr_miss_latency::.cpu1.data 14049.280802                       # average ReadReq mshr miss latency
system.cpu1.dcache.ReadReq_avg_mshr_miss_latency::total 14049.280802                       # average ReadReq mshr miss latency
system.cpu1.dcache.WriteReq_hits::.cpu1.data      1438367                       # number of WriteReq hits
system.cpu1.dcache.WriteReq_hits::total       1438367                       # number of WriteReq hits
system.cpu1.dcache.WriteReq_misses::.cpu1.data       256018                       # number of WriteReq misses
system.cpu1.dcache.WriteReq_misses::total       256018                       # number of WriteReq misses
system.cpu1.dcache.WriteReq_miss_latency::.cpu1.data   7458944500                       # number of WriteReq miss cycles
system.cpu1.dcache.WriteReq_miss_latency::total   7458944500                       # number of WriteReq miss cycles
system.cpu1.dcache.WriteReq_accesses::.cpu1.data      1694385                       # number of WriteReq accesses(hits+misses)
system.cpu1.dcache.WriteReq_accesses::total      1694385                       # number of WriteReq accesses(hits+misses)
[...]
system.mem_ctrls.bytesPerActivate::640-767         1923      1.72%     45.12% # Bytes accessed per row activation
system.mem_ctrls.bytesPerActivate::768-895         1788      1.60%     46.72% # Bytes accessed per row activation
system.mem_ctrls.bytesPerActivate::896-1023         1838      1.65%     48.36% # Bytes accessed per row activation
system.mem_ctrls.bytesPerActivate::1024-1151        57665     51.64%    100.00% # Bytes accessed per row activation
system.mem_ctrls.bytesPerActivate::total       111676                       # Bytes accessed per row activation
system.mem_ctrls.rdPerTurnAround::samples        34409                       # Reads before turning the bus around for writes
system.mem_ctrls.rdPerTurnAround::mean      16.444884                       # Reads before turning the bus around for writes
system.mem_ctrls.rdPerTurnAround::gmean     16.136981                       # Reads before turning the bus around for writes
system.mem_ctrls.rdPerTurnAround::stdev     10.473899                       # Reads before turning the bus around for writes
system.mem_ctrls.rdPerTurnAround::0-31          34327     99.76%     99.76% # Reads before turning the bus around for writes
system.mem_ctrls.rdPerTurnAround::32-63            14      0.04%     99.80% # Reads before turning the bus around for writes
system.mem_ctrls.rdPerTurnAround::64-95            16      0.05%     99.85% # Reads before turning the bus around for writes
system.mem_ctrls.rdPerTurnAround::96-127           16      0.05%     99.90% # Reads before turning the bus around for writes
system.mem_ctrls.rdPerTurnAround::128-159            6      0.02%     99.91% # Reads before turning the bus around for writes
system.mem_ctrls.rdPerTurnAround::160-191           11      0.03%     99.94% # Reads before turning the bus around for writes
system.mem_ctrls.rdPerTurnAround::192-223            5      0.01%     99.96% # Reads before turning the bus around for writes
system.mem_ctrls.rdPerTurnAround::224-255            2      0.01%     99.97% # Reads before turning the bus around for writes
system.mem_ctrls.rdPerTurnAround::256-287            4      0.01%     99.98% # Reads before turning the bus around for writes
system.mem_ctrls.rdPerTurnAround::288-319            1      0.00%     99.98% # Reads before turning the bus around for writes
system.mem_ctrls.rdPerTurnAround::352-383            2      0.01%     99.99% # Reads before turning the bus around for writes
system.mem_ctrls.rdPerTurnAround::384-415            1      0.00%     99.99% # Reads before turning the bus around for writes
system.mem_ctrls.rdPerTurnAround::512-543            1      0.00%     99.99% # Reads before turning the bus around for writes
system.mem_ctrls.rdPerTurnAround::640-671            1      0.00%     99.99% # Reads before turning the bus around for writes
system.mem_ctrls.rdPerTurnAround::672-703            1      0.00%    100.00% # Reads before turning the bus around for writes
system.mem_ctrls.rdPerTurnAround::992-1023            1      0.00%    100.00% # Reads before turning the bus around for writes
system.mem_ctrls.rdPerTurnAround::total         34409                       # Reads before turning the bus around for writes
system.mem_ctrls.wrPerTurnAround::samples        34409                       # Writes before turning the bus around for reads
system.mem_ctrls.wrPerTurnAround::mean      16.057252                       # Writes before turning the bus around for reads
system.mem_ctrls.wrPerTurnAround::gmean     16.052685                       # Writes before turning the bus around for reads
system.mem_ctrls.wrPerTurnAround::stdev      0.407341                       # Writes before turning the bus around for reads
system.mem_ctrls.wrPerTurnAround::16            33588     97.61%     97.61% # Writes before turning the bus around for reads
system.mem_ctrls.wrPerTurnAround::17              246      0.71%     98.33% # Writes before turning the bus around for reads
system.mem_ctrls.wrPerTurnAround::18              186      0.54%     98.87% # Writes before turning the bus around for reads
system.mem_ctrls.wrPerTurnAround::19              222      0.65%     99.51% # Writes before turning the bus around for reads
system.mem_ctrls.wrPerTurnAround::20              149      0.43%     99.95% # Writes before turning the bus around for reads
system.mem_ctrls.wrPerTurnAround::21               18      0.05%    100.00% # Writes before turning the bus around for reads
system.mem_ctrls.wrPerTurnAround::total         34409                       # Writes before turning the bus around for reads
system.mem_ctrls.bytesReadDRAM               36215168                       # Total number of bytes read from DRAM
system.mem_ctrls.bytesReadWrQ                   24896                       # Total number of bytes read from write queue
system.mem_ctrls.bytesWritten                35360896                       # Total number of bytes written to DRAM
system.mem_ctrls.bytesReadSys                36240064                       # Total read bytes from the system interface side
system.mem_ctrls.bytesWrittenSys             35374656                       # Total written bytes from the system interface side
system.mem_ctrls.avgRdBW                      1083.05                       # Average DRAM read bandwidth in MiByte/s
system.mem_ctrls.avgWrBW                      1057.50                       # Average achieved write bandwidth in MiByte/s
system.mem_ctrls.avgRdBWSys                   1083.79                       # Average system read bandwidth in MiByte/s
system.mem_ctrls.avgWrBWSys                   1057.91                       # Average system write bandwidth in MiByte/s
system.mem_ctrls.peakBW                      12800.00                       # Theoretical peak bandwidth in MiByte/s
system.mem_ctrls.busUtil                        16.72                       # Data bus utilization in percentage
system.mem_ctrls.busUtilRead                     8.46                       # Data bus utilization in percentage for reads
system.mem_ctrls.busUtilWrite                    8.26                       # Data bus utilization in percentage for writes
system.mem_ctrls.totGap                   33438109500                       # Total gap between requests
system.mem_ctrls.avgGap                      29882.67                       # Average gap between requests
system.mem_ctrls.masterReadBytes::.cpu0.inst       195840                       # Per-master bytes read from memory
system.mem_ctrls.masterReadBytes::.cpu0.data     33236032                       # Per-master bytes read from memory
system.mem_ctrls.masterReadBytes::.cpu1.inst       119936                       # Per-master bytes read from memory
system.mem_ctrls.masterReadBytes::.cpu1.data      2663360                       # Per-master bytes read from memory
system.mem_ctrls.masterWriteBytes::.writebacks     35360896                       # Per-master bytes write to memory
system.mem_ctrls.masterReadRate::.cpu0.inst 5856782.206279822625                       # Per-master bytes read from memory rate (Bytes/sec)
system.mem_ctrls.masterReadRate::.cpu0.data 993955273.820193886757                       # Per-master bytes read from memory rate (Bytes/sec)
system.mem_ctrls.masterReadRate::.cpu1.inst 3586800.606068100315                       # Per-master bytes read from memory rate (Bytes/sec)
system.mem_ctrls.masterReadRate::.cpu1.data 79650324.024292424321                       # Per-master bytes read from memory rate (Bytes/sec)
system.mem_ctrls.masterWriteRate::.writebacks 1057501360.758329987526                       # Per-master bytes write to memory rate (Bytes/sec)
system.mem_ctrls.masterReadAccesses::.cpu0.inst         3060                       # Per-master read serviced memory accesses
system.mem_ctrls.masterReadAccesses::.cpu0.data       519680                       # Per-master read serviced memory accesses
system.mem_ctrls.masterReadAccesses::.cpu1.inst         1874                       # Per-master read serviced memory accesses
system.mem_ctrls.masterReadAccesses::.cpu1.data        41637                       # Per-master read serviced memory accesses
system.mem_ctrls.masterWriteAccesses::.writebacks       552729                       # Per-master write serviced memory accesses
system.mem_ctrls.masterReadTotalLat::.cpu0.inst     89334000                       # Per-master read total memory access latency
system.mem_ctrls.masterReadTotalLat::.cpu0.data  17542186000                       # Per-master read total memory access latency
system.mem_ctrls.masterReadTotalLat::.cpu1.inst     56576500                       # Per-master read total memory access latency
system.mem_ctrls.masterReadTotalLat::.cpu1.data   1683591750                       # Per-master read total memory access latency
system.mem_ctrls.masterWriteTotalLat::.writebacks 835878177500                       # Per-master write total memory access latency
system.mem_ctrls.masterReadAvgLat::.cpu0.inst     29194.12                       # Per-master read average memory access latency
system.mem_ctrls.masterReadAvgLat::.cpu0.data     33755.75                       # Per-master read average memory access latency
system.mem_ctrls.masterReadAvgLat::.cpu1.inst     30190.23                       # Per-master read average memory access latency
system.mem_ctrls.masterReadAvgLat::.cpu1.data     40434.99                       # Per-master read average memory access latency
system.mem_ctrls.masterWriteAvgLat::.writebacks   1512274.87                       # Per-master write average memory access latency
system.mem_ctrls.pageHitRate                    90.01                       # Row buffer hit rate, read and write combined
system.mem_ctrls.rank1.actEnergy            398476260                       # Energy for activate commands per rank (pJ)
system.mem_ctrls.rank1.preEnergy            211787565                       # Energy for precharge commands per rank (pJ)
system.mem_ctrls.rank1.readEnergy          2016086100                       # Energy for read commands per rank (pJ)
system.mem_ctrls.rank1.writeEnergy         1443084660                       # Energy for write commands per rank (pJ)
system.mem_ctrls.rank1.refreshEnergy     2639264160.000000                       # Energy for refresh commands per rank (pJ)
system.mem_ctrls.rank1.actBackEnergy      13497569220                       # Energy for active background per rank (pJ)
system.mem_ctrls.rank1.preBackEnergy       1473878400                       # Energy for precharge background per rank (pJ)
system.mem_ctrls.rank1.actPowerDownEnergy            0                       # Energy for active power-down per rank (pJ)
system.mem_ctrls.rank1.prePowerDownEnergy            0                       # Energy for precharge power-down per rank (pJ)
system.mem_ctrls.rank1.selfRefreshEnergy            0                       # Energy for self refresh per rank (pJ)
system.mem_ctrls.rank1.totalEnergy        21680146365                       # Total energy per rank (pJ)
system.mem_ctrls.rank1.averagePower        648.365479                       # Core power per rank (mW)
system.mem_ctrls.rank1.totalIdleTime                0                       # Total Idle time Per DRAM Rank
system.mem_ctrls.rank1.memoryStateTime::IDLE   3683897750                       # Time in different power states
system.mem_ctrls.rank1.memoryStateTime::REF   1116440000                       # Time in different power states
system.mem_ctrls.rank1.memoryStateTime::SREF            0                       # Time in different power states
system.mem_ctrls.rank1.memoryStateTime::PRE_PDN            0                       # Time in different power states
system.mem_ctrls.rank1.memoryStateTime::ACT  28637818750                       # Time in different power states
system.mem_ctrls.rank1.memoryStateTime::ACT_PDN            0                       # Time in different power states
system.mem_ctrls.rank0.actEnergy            398911800                       # Energy for activate commands per rank (pJ)
system.mem_ctrls.rank0.preEnergy            212022855                       # Energy for precharge commands per rank (pJ)
system.mem_ctrls.rank0.readEnergy          2024168580                       # Energy for read commands per rank (pJ)
system.mem_ctrls.rank0.writeEnergy         1441038420                       # Energy for write commands per rank (pJ)
system.mem_ctrls.rank0.refreshEnergy     2639264160.000000                       # Energy for refresh commands per rank (pJ)
system.mem_ctrls.rank0.actBackEnergy      13463177700                       # Energy for active background per rank (pJ)
system.mem_ctrls.rank0.preBackEnergy       1502839680                       # Energy for precharge background per rank (pJ)
system.mem_ctrls.rank0.actPowerDownEnergy            0                       # Energy for active power-down per rank (pJ)
system.mem_ctrls.rank0.prePowerDownEnergy            0                       # Energy for precharge power-down per rank (pJ)
system.mem_ctrls.rank0.selfRefreshEnergy            0                       # Energy for self refresh per rank (pJ)
system.mem_ctrls.rank0.totalEnergy        21681423195                       # Total energy per rank (pJ)
system.mem_ctrls.rank0.averagePower        648.403664                       # Core power per rank (mW)
system.mem_ctrls.rank0.totalIdleTime                0                       # Total Idle time Per DRAM Rank
system.mem_ctrls.rank0.memoryStateTime::IDLE   3757997500                       # Time in different power states
system.mem_ctrls.rank0.memoryStateTime::REF   1116440000                       # Time in different power states
system.mem_ctrls.rank0.memoryStateTime::SREF            0                       # Time in different power states
system.mem_ctrls.rank0.memoryStateTime::PRE_PDN            0                       # Time in different power states
system.mem_ctrls.rank0.memoryStateTime::ACT  28563719000                       # Time in different power states
system.mem_ctrls.rank0.memoryStateTime::ACT_PDN            0                       # Time in different power states
system.mem_ctrls.power_state.pwrStateResidencyTicks::UNDEFINED  33438156500                       # Cumulative time (in ticks) in various power states
system.cpu_clk_domain.clock                       500                       # Clock period in ticks
system.tol2bus.trans_dist::ReadResp           2104617                       # Transaction distribution
system.tol2bus.trans_dist::WritebackDirty      1485915                       # Transaction distribution
system.tol2bus.trans_dist::WritebackClean      1646845                       # Transaction distribution
system.tol2bus.trans_dist::CleanEvict          242448                       # Transaction distribution
system.tol2bus.trans_dist::ReadExReq           704850                       # Transaction distribution
system.tol2bus.trans_dist::ReadExResp          704848                       # Transaction distribution
system.tol2bus.trans_dist::ReadCleanReq       1646877                       # Transaction distribution
system.tol2bus.trans_dist::ReadSharedReq       457740                       # Transaction distribution
system.tol2bus.pkt_count_system.cpu0.icache.mem_side::system.l2.cpu_side        33143                       # Packet count per connected master and slave (bytes)
system.tol2bus.pkt_count_system.cpu0.dcache.mem_side::system.l2.cpu_side      1575706                       # Packet count per connected master and slave (bytes)
system.tol2bus.pkt_count_system.cpu1.icache.mem_side::system.l2.cpu_side      4907456                       # Packet count per connected master and slave (bytes)
system.tol2bus.pkt_count_system.cpu1.dcache.mem_side::system.l2.cpu_side      1912028                       # Packet count per connected master and slave (bytes)
system.tol2bus.pkt_count::total               8428333                       # Packet count per connected master and slave (bytes)
system.tol2bus.pkt_size_system.cpu0.icache.mem_side::system.l2.cpu_side      1413760                       # Cumulative packet size per connected master and slave (bytes)
system.tol2bus.pkt_size_system.cpu0.dcache.mem_side::system.l2.cpu_side     66807872                       # Cumulative packet size per connected master and slave (bytes)
system.tol2bus.pkt_size_system.cpu1.icache.mem_side::system.l2.cpu_side    209384448                       # Cumulative packet size per connected master and slave (bytes)
system.tol2bus.pkt_size_system.cpu1.dcache.mem_side::system.l2.cpu_side     67321664                       # Cumulative packet size per connected master and slave (bytes)
system.tol2bus.pkt_size::total              344927744                       # Cumulative packet size per connected master and slave (bytes)
system.tol2bus.snoops                          565807                       # Total snoops (count)
system.tol2bus.snoopTraffic                  35374656                       # Total snoop traffic (bytes)
system.tol2bus.snoop_fanout::samples          3375274                       # Request fanout histogram
system.tol2bus.snoop_fanout::mean            0.000430                       # Request fanout histogram
system.tol2bus.snoop_fanout::stdev           0.020744                       # Request fanout histogram
system.tol2bus.snoop_fanout::underflows             0      0.00%      0.00% # Request fanout histogram
system.tol2bus.snoop_fanout::0                3373821     99.96%     99.96% # Request fanout histogram
system.tol2bus.snoop_fanout::1                   1453      0.04%    100.00% # Request fanout histogram
system.tol2bus.snoop_fanout::2                      0      0.00%    100.00% # Request fanout histogram
system.tol2bus.snoop_fanout::3                      0      0.00%    100.00% # Request fanout histogram
system.tol2bus.snoop_fanout::4                      0      0.00%    100.00% # Request fanout histogram
system.tol2bus.snoop_fanout::5                      0      0.00%    100.00% # Request fanout histogram
system.tol2bus.snoop_fanout::6                      0      0.00%    100.00% # Request fanout histogram
system.tol2bus.snoop_fanout::7                      0      0.00%    100.00% # Request fanout histogram
system.tol2bus.snoop_fanout::8                      0      0.00%    100.00% # Request fanout histogram
system.tol2bus.snoop_fanout::overflows              0      0.00%    100.00% # Request fanout histogram
system.tol2bus.snoop_fanout::min_value              0                       # Request fanout histogram
system.tol2bus.snoop_fanout::max_value              1                       # Request fanout histogram
system.tol2bus.snoop_fanout::total            3375274                       # Request fanout histogram
system.tol2bus.reqLayer0.occupancy         5389465000                       # Layer occupancy (ticks)
system.tol2bus.reqLayer0.utilization             16.1                       # Layer utilization (%)
system.tol2bus.respLayer5.occupancy         956066409                       # Layer occupancy (ticks)
system.tol2bus.respLayer5.utilization             2.9                       # Layer utilization (%)
system.tol2bus.respLayer4.occupancy        2453751468                       # Layer occupancy (ticks)
system.tol2bus.respLayer4.utilization             7.3                       # Layer utilization (%)
system.tol2bus.respLayer1.occupancy         796459267                       # Layer occupancy (ticks)
system.tol2bus.respLayer1.utilization             2.4                       # Layer utilization (%)
system.tol2bus.respLayer0.occupancy          16653351                       # Layer occupancy (ticks)
system.tol2bus.respLayer0.utilization             0.0                       # Layer utilization (%)
system.tol2bus.power_state.pwrStateResidencyTicks::UNDEFINED  33438156500                       # Cumulative time (in ticks) in various power states

---------- End Simulation Statistics   ----------
