
---------- Begin Simulation Statistics ----------
final_tick                                13981517000                       # Number of ticks from beginning of simulation (restored from checkpoints and never reset)
host_inst_rate                                 239360                       # Simulator instruction rate (inst/s)
host_mem_usage                                4478928                       # Number of bytes of host memory used
host_op_rate                                   413951                       # Simulator op (including micro ops) rate (op/s)
host_seconds                                    55.64                       # Real time elapsed on the host
host_tick_rate                              251287744                       # Simulator tick rate (ticks/s)
sim_freq                                 1000000000000                       # Frequency of simulated ticks
sim_insts                                    13317817                       # Number of instructions simulated
sim_ops                                      23032024                       # Number of ops (including micro ops) simulated
sim_seconds                                  0.013982                       # Number of seconds simulated
sim_ticks                                 13981517000                       # Number of ticks simulated
system.cpu0.branchPred.BTBCorrect                   0                       # Number of correct BTB predictions (this stat may not work properly.
system.cpu0.branchPred.BTBHitPct                  nan                       # BTB Hit Percentage
system.cpu0.branchPred.BTBHits                      0                       # Number of BTB hits
system.cpu0.branchPred.BTBLookups                   0                       # Number of BTB lookups
system.cpu0.branchPred.RASInCorrect                 0                       # Number of incorrect RAS predictions.
system.cpu0.branchPred.condIncorrect               82                       # Number of conditional branches incorrect
system.cpu0.branchPred.condPredicted              274                       # Number of conditional branches predicted
system.cpu0.branchPred.indirectHits                16                       # Number of indirect target hits.
system.cpu0.branchPred.indirectLookups             93                       # Number of indirect predictor lookups.
system.cpu0.branchPred.indirectMisses              77                       # Number of indirect misses.
system.cpu0.branchPred.lookups                    274                       # Number of BP lookups
system.cpu0.branchPred.usedRAS                      0                       # Number of times the RAS was used to get a target.
system.cpu0.branchPredindirectMispredicted           58                       # Number of mispredicted indirect branches.
system.cpu0.committedInsts                    3317817                       # Number of instructions committed
system.cpu0.committedOps                      6104093                       # Number of ops (including micro ops) committed
system.cpu0.cpi                              8.428142                       # CPI: cycles per instruction
system.cpu0.discardedOps                      1563076                       # Number of ops (including micro ops) which were discarded before commit
system.cpu0.dtb.rdAccesses                     812534                       # TLB accesses on read requests
system.cpu0.dtb.rdMisses                        11489                       # TLB misses on read requests
system.cpu0.dtb.wrAccesses                     420892                       # TLB accesses on write requests
system.cpu0.dtb.wrMisses                          458                       # TLB misses on write requests
system.cpu0.fetch2.amo_instructions                 0                       # Number of memory atomic instructions successfully decoded
system.cpu0.fetch2.fp_instructions                  0                       # Number of floating point instructions successfully decoded
system.cpu0.fetch2.int_instructions                29                       # Number of integer instructions successfully decoded
system.cpu0.fetch2.load_instructions                0                       # Number of memory load instructions successfully decoded
system.cpu0.fetch2.store_instructions               0                       # Number of memory store instructions successfully decoded
system.cpu0.fetch2.vec_instructions                 0                       # Number of SIMD instructions successfully decoded
system.cpu0.idleCycles                       16838717                       # Total number of cycles that the object has spent stopped
system.cpu0.ipc                              0.118650                       # IPC: instructions per cycle
system.cpu0.itb.rdAccesses                          0                       # TLB accesses on read requests
system.cpu0.itb.rdMisses                            0                       # TLB misses on read requests
system.cpu0.itb.wrAccesses                    1459742                       # TLB accesses on write requests
system.cpu0.itb.wrMisses                          591                       # TLB misses on write requests
system.cpu0.numCycles                        27963034                       # number of cpu cycles simulated
system.cpu0.numFetchSuspends                        0                       # Number of times Execute suspended instruction fetching
system.cpu0.numWorkItemsCompleted                   0                       # number of work items this cpu completed
system.cpu0.numWorkItemsStarted                     0                       # number of work items this cpu started
system.cpu0.op_class_0::No_OpClass              82466      1.35%      1.35% # Class of committed instruction
system.cpu0.op_class_0::IntAlu                4819874     78.96%     80.31% # Class of committed instruction
system.cpu0.op_class_0::IntMult                   122      0.00%     80.31% # Class of committed instruction
system.cpu0.op_class_0::IntDiv                  45003      0.74%     81.05% # Class of committed instruction
system.cpu0.op_class_0::FloatAdd                 4965      0.08%     81.13% # Class of committed instruction
system.cpu0.op_class_0::FloatCmp                    0      0.00%     81.13% # Class of committed instruction
system.cpu0.op_class_0::FloatCvt                 2064      0.03%     81.17% # Class of committed instruction
system.cpu0.op_class_0::FloatMult                   0      0.00%     81.17% # Class of committed instruction
system.cpu0.op_class_0::FloatMultAcc                0      0.00%     81.17% # Class of committed instruction
system.cpu0.op_class_0::FloatDiv                    0      0.00%     81.17% # Class of committed instruction
system.cpu0.op_class_0::FloatMisc                   0      0.00%     81.17% # Class of committed instruction
system.cpu0.op_class_0::FloatSqrt                   0      0.00%     81.17% # Class of committed instruction
system.cpu0.op_class_0::SimdAdd                  7336      0.12%     81.29% # Class of committed instruction
system.cpu0.op_class_0::SimdAddAcc                  0      0.00%     81.29% # Class of committed instruction
system.cpu0.op_class_0::SimdAlu                 18850      0.31%     81.60% # Class of committed instruction
system.cpu0.op_class_0::SimdCmp                     6      0.00%     81.60% # Class of committed instruction
system.cpu0.op_class_0::SimdCvt                 16310      0.27%     81.86% # Class of committed instruction
system.cpu0.op_class_0::SimdMisc                12489      0.20%     82.07% # Class of committed instruction
system.cpu0.op_class_0::SimdMult                    0      0.00%     82.07% # Class of committed instruction
system.cpu0.op_class_0::SimdMultAcc                 0      0.00%     82.07% # Class of committed instruction
system.cpu0.op_class_0::SimdShift                2208      0.04%     82.10% # Class of committed instruction
system.cpu0.op_class_0::SimdShiftAcc                0      0.00%     82.10% # Class of committed instruction
system.cpu0.op_class_0::SimdDiv                     0      0.00%     82.10% # Class of committed instruction
system.cpu0.op_class_0::SimdSqrt                    0      0.00%     82.10% # Class of committed instruction
system.cpu0.op_class_0::SimdFloatAdd               67      0.00%     82.10% # Class of committed instruction
system.cpu0.op_class_0::SimdFloatAlu                0      0.00%     82.10% # Class of committed instruction
system.cpu0.op_class_0::SimdFloatCmp                0      0.00%     82.10% # Class of committed instruction
system.cpu0.op_class_0::SimdFloatCvt             1023      0.02%     82.12% # Class of committed instruction
system.cpu0.op_class_0::SimdFloatDiv                0      0.00%     82.12% # Class of committed instruction
system.cpu0.op_class_0::SimdFloatMisc               0      0.00%     82.12% # Class of committed instruction
system.cpu0.op_class_0::SimdFloatMult              71      0.00%     82.12% # Class of committed instruction
system.cpu0.op_class_0::SimdFloatMultAcc            0      0.00%     82.12% # Class of committed instruction
system.cpu0.op_class_0::SimdFloatSqrt               0      0.00%     82.12% # Class of committed instruction
system.cpu0.op_class_0::SimdReduceAdd               0      0.00%     82.12% # Class of committed instruction
system.cpu0.op_class_0::SimdReduceAlu               0      0.00%     82.12% # Class of committed instruction
system.cpu0.op_class_0::SimdReduceCmp               0      0.00%     82.12% # Class of committed instruction
system.cpu0.op_class_0::SimdFloatReduceAdd            0      0.00%     82.12% # Class of committed instruction
system.cpu0.op_class_0::SimdFloatReduceCmp            0      0.00%     82.12% # Class of committed instruction
system.cpu0.op_class_0::SimdAes                     0      0.00%     82.12% # Class of committed instruction
system.cpu0.op_class_0::SimdAesMix                  0      0.00%     82.12% # Class of committed instruction
system.cpu0.op_class_0::SimdSha1Hash                0      0.00%     82.12% # Class of committed instruction
system.cpu0.op_class_0::SimdSha1Hash2               0      0.00%     82.12% # Class of committed instruction
system.cpu0.op_class_0::SimdSha256Hash              0      0.00%     82.12% # Class of committed instruction
system.cpu0.op_class_0::SimdSha256Hash2             0      0.00%     82.12% # Class of committed instruction
system.cpu0.op_class_0::SimdShaSigma2               0      0.00%     82.12% # Class of committed instruction
system.cpu0.op_class_0::SimdShaSigma3               0      0.00%     82.12% # Class of committed instruction
system.cpu0.op_class_0::SimdPredAlu                 0      0.00%     82.12% # Class of committed instruction
system.cpu0.op_class_0::MemRead                653558     10.71%     92.83% # Class of committed instruction
system.cpu0.op_class_0::MemWrite               383199      6.28%     99.11% # Class of committed instruction
system.cpu0.op_class_0::FloatMemRead            32331      0.53%     99.64% # Class of committed instruction
system.cpu0.op_class_0::FloatMemWrite           22151      0.36%    100.00% # Class of committed instruction
system.cpu0.op_class_0::IprAccess                   0      0.00%    100.00% # Class of committed instruction
system.cpu0.op_class_0::InstPrefetch                0      0.00%    100.00% # Class of committed instruction
system.cpu0.op_class_0::total                 6104093                       # Class of committed instruction
system.cpu0.tickCycles                       11124317                       # Number of cycles that the object actually ticked
system.cpu0.workload.numSyscalls                   82                       # Number of system calls
system.cpu1.branchPred.BTBCorrect                   0                       # Number of correct BTB predictions (this stat may not work properly.
system.cpu1.branchPred.BTBHitPct                  nan                       # BTB Hit Percentage
system.cpu1.branchPred.BTBHits                      0                       # Number of BTB hits
system.cpu1.branchPred.BTBLookups                   0                       # Number of BTB lookups
system.cpu1.branchPred.RASInCorrect                 0                       # Number of incorrect RAS predictions.
system.cpu1.branchPred.condIncorrect               43                       # Number of conditional branches incorrect
system.cpu1.branchPred.condPredicted               90                       # Number of conditional branches predicted
system.cpu1.branchPred.indirectHits                 0                       # Number of indirect target hits.
system.cpu1.branchPred.indirectLookups             24                       # Number of indirect predictor lookups.
system.cpu1.branchPred.indirectMisses              24                       # Number of indirect misses.
system.cpu1.branchPred.lookups                     90                       # Number of BP lookups
system.cpu1.branchPred.usedRAS                      0                       # Number of times the RAS was used to get a target.
system.cpu1.branchPredindirectMispredicted           15                       # Number of mispredicted indirect branches.
system.cpu1.committedInsts                   10000000                       # Number of instructions committed
system.cpu1.committedOps                     16927931                       # Number of ops (including micro ops) committed
system.cpu1.cpi                              2.796303                       # CPI: cycles per instruction
system.cpu1.discardedOps                      2872028                       # Number of ops (including micro ops) which were discarded before commit
system.cpu1.dtb.rdAccesses                    4157454                       # TLB accesses on read requests
system.cpu1.dtb.rdMisses                         2426                       # TLB misses on read requests
system.cpu1.dtb.wrAccesses                    2003185                       # TLB accesses on write requests
system.cpu1.dtb.wrMisses                         1720                       # TLB misses on write requests
system.cpu1.fetch2.amo_instructions                 0                       # Number of memory atomic instructions successfully decoded
system.cpu1.fetch2.fp_instructions                  0                       # Number of floating point instructions successfully decoded
system.cpu1.fetch2.int_instructions                 8                       # Number of integer instructions successfully decoded
system.cpu1.fetch2.load_instructions                0                       # Number of memory load instructions successfully decoded
system.cpu1.fetch2.store_instructions               0                       # Number of memory store instructions successfully decoded
system.cpu1.fetch2.vec_instructions                 0                       # Number of SIMD instructions successfully decoded
system.cpu1.idleCycles                        5034777                       # Total number of cycles that the object has spent stopped
system.cpu1.ipc                              0.357615                       # IPC: instructions per cycle
system.cpu1.itb.rdAccesses                          0                       # TLB accesses on read requests
system.cpu1.itb.rdMisses                            0                       # TLB misses on read requests
system.cpu1.itb.wrAccesses                    2443260                       # TLB accesses on write requests
system.cpu1.itb.wrMisses                          205                       # TLB misses on write requests
system.cpu1.numCycles                        27963034                       # number of cpu cycles simulated
system.cpu1.numFetchSuspends                        0                       # Number of times Execute suspended instruction fetching
system.cpu1.numWorkItemsCompleted                   0                       # number of work items this cpu completed
system.cpu1.numWorkItemsStarted                     0                       # number of work items this cpu started
system.cpu1.op_class_0::No_OpClass              31838      0.19%      0.19% # Class of committed instruction
system.cpu1.op_class_0::IntAlu               11081465     65.46%     65.65% # Class of committed instruction
system.cpu1.op_class_0::IntMult                    77      0.00%     65.65% # Class of committed instruction
system.cpu1.op_class_0::IntDiv                   1369      0.01%     65.66% # Class of committed instruction
system.cpu1.op_class_0::FloatAdd                  223      0.00%     65.66% # Class of committed instruction
system.cpu1.op_class_0::FloatCmp                    0      0.00%     65.66% # Class of committed instruction
system.cpu1.op_class_0::FloatCvt                  176      0.00%     65.66% # Class of committed instruction
system.cpu1.op_class_0::FloatMult                   0      0.00%     65.66% # Class of committed instruction
system.cpu1.op_class_0::FloatMultAcc                0      0.00%     65.66% # Class of committed instruction
system.cpu1.op_class_0::FloatDiv                    0      0.00%     65.66% # Class of committed instruction
system.cpu1.op_class_0::FloatMisc                   0      0.00%     65.66% # Class of committed instruction
system.cpu1.op_class_0::FloatSqrt                   0      0.00%     65.66% # Class of committed instruction
system.cpu1.op_class_0::SimdAdd                   952      0.01%     65.67% # Class of committed instruction
system.cpu1.op_class_0::SimdAddAcc                  0      0.00%     65.67% # Class of committed instruction
system.cpu1.op_class_0::SimdAlu                   988      0.01%     65.67% # Class of committed instruction
system.cpu1.op_class_0::SimdCmp                     0      0.00%     65.67% # Class of committed instruction
system.cpu1.op_class_0::SimdCvt                  1344      0.01%     65.68% # Class of committed instruction
system.cpu1.op_class_0::SimdMisc                  912      0.01%     65.69% # Class of committed instruction
system.cpu1.op_class_0::SimdMult                    0      0.00%     65.69% # Class of committed instruction
system.cpu1.op_class_0::SimdMultAcc                 0      0.00%     65.69% # Class of committed instruction
system.cpu1.op_class_0::SimdShift                 333      0.00%     65.69% # Class of committed instruction
system.cpu1.op_class_0::SimdShiftAcc                0      0.00%     65.69% # Class of committed instruction
system.cpu1.op_class_0::SimdDiv                     0      0.00%     65.69% # Class of committed instruction
system.cpu1.op_class_0::SimdSqrt                    0      0.00%     65.69% # Class of committed instruction
system.cpu1.op_class_0::SimdFloatAdd                0      0.00%     65.69% # Class of committed instruction
system.cpu1.op_class_0::SimdFloatAlu                0      0.00%     65.69% # Class of committed instruction
system.cpu1.op_class_0::SimdFloatCmp                0      0.00%     65.69% # Class of committed instruction
system.cpu1.op_class_0::SimdFloatCvt                0      0.00%     65.69% # Class of committed instruction
system.cpu1.op_class_0::SimdFloatDiv                0      0.00%     65.69% # Class of committed instruction
system.cpu1.op_class_0::SimdFloatMisc               0      0.00%     65.69% # Class of committed instruction
system.cpu1.op_class_0::SimdFloatMult               0      0.00%     65.69% # Class of committed instruction
system.cpu1.op_class_0::SimdFloatMultAcc            0      0.00%     65.69% # Class of committed instruction
system.cpu1.op_class_0::SimdFloatSqrt               0      0.00%     65.69% # Class of committed instruction
system.cpu1.op_class_0::SimdReduceAdd               0      0.00%     65.69% # Class of committed instruction
system.cpu1.op_class_0::SimdReduceAlu               0      0.00%     65.69% # Class of committed instruction
system.cpu1.op_class_0::SimdReduceCmp               0      0.00%     65.69% # Class of committed instruction
system.cpu1.op_class_0::SimdFloatReduceAdd            0      0.00%     65.69% # Class of committed instruction
system.cpu1.op_class_0::SimdFloatReduceCmp            0      0.00%     65.69% # Class of committed instruction
system.cpu1.op_class_0::SimdAes                     0      0.00%     65.69% # Class of committed instruction
system.cpu1.op_class_0::SimdAesMix                  0      0.00%     65.69% # Class of committed instruction
system.cpu1.op_class_0::SimdSha1Hash                0      0.00%     65.69% # Class of committed instruction
system.cpu1.op_class_0::SimdSha1Hash2               0      0.00%     65.69% # Class of committed instruction
system.cpu1.op_class_0::SimdSha256Hash              0      0.00%     65.69% # Class of committed instruction
system.cpu1.op_class_0::SimdSha256Hash2             0      0.00%     65.69% # Class of committed instruction
system.cpu1.op_class_0::SimdShaSigma2               0      0.00%     65.69% # Class of committed instruction
system.cpu1.op_class_0::SimdShaSigma3               0      0.00%     65.69% # Class of committed instruction
system.cpu1.op_class_0::SimdPredAlu                 0      0.00%     65.69% # Class of committed instruction
system.cpu1.op_class_0::MemRead               3833806     22.65%     88.34% # Class of committed instruction
system.cpu1.op_class_0::MemWrite              1911134     11.29%     99.63% # Class of committed instruction
system.cpu1.op_class_0::FloatMemRead            31918      0.19%     99.81% # Class of committed instruction
system.cpu1.op_class_0::FloatMemWrite           31396      0.19%    100.00% # Class of committed instruction
system.cpu1.op_class_0::IprAccess                   0      0.00%    100.00% # Class of committed instruction
system.cpu1.op_class_0::InstPrefetch                0      0.00%    100.00% # Class of committed instruction
system.cpu1.op_class_0::total                16927931                       # Class of committed instruction
system.cpu1.tickCycles                       22928257                       # Number of cycles that the object actually ticked
system.cpu1.workload.numSyscalls                   43                       # Number of system calls
system.membus.snoop_filter.hit_multi_requests            0                       # Number of requests hitting in the snoop filter with multiple (>1) holders of the requested data.
system.membus.snoop_filter.hit_multi_snoops            0                       # Number of snoops hitting in the snoop filter with multiple (>1) holders of the requested data.
system.membus.snoop_filter.hit_single_requests       102272                       # Number of requests hitting in the snoop filter with a single holder of the requested data.
system.membus.snoop_filter.hit_single_snoops            0                       # Number of snoops hitting in the snoop filter with a single holder of the requested data.
system.membus.snoop_filter.tot_requests        205568                       # Total number of requests made to the snoop filter.
system.membus.snoop_filter.tot_snoops               0                       # Total number of snoops made to the snoop filter.
system.tol2bus.snoop_filter.hit_multi_requests            1                       # Number of requests hitting in the snoop filter with multiple (>1) holders of the requested data.
system.tol2bus.snoop_filter.hit_multi_snoops            0                       # Number of snoops hitting in the snoop filter with multiple (>1) holders of the requested data.
system.tol2bus.snoop_filter.hit_single_requests       683054                       # Number of requests hitting in the snoop filter with a single holder of the requested data.
system.tol2bus.snoop_filter.hit_single_snoops         8935                       # Number of snoops hitting in the snoop filter with a single holder of the requested data.
system.tol2bus.snoop_filter.tot_requests      1366172                       # Total number of requests made to the snoop filter.
system.tol2bus.snoop_filter.tot_snoops           8935                       # Total number of snoops made to the snoop filter.
system.membus.trans_dist::ReadResp              79886                       # Transaction distribution
system.membus.trans_dist::WritebackDirty        25342                       # Transaction distribution
system.membus.trans_dist::CleanEvict            76930                       # Transaction distribution
system.membus.trans_dist::ReadExReq             23410                       # Transaction distribution
system.membus.trans_dist::ReadExResp            23410                       # Transaction distribution
system.membus.trans_dist::ReadSharedReq         79886                       # Transaction distribution
system.membus.pkt_count_system.l2.mem_side::system.mem_ctrls.port       308864                       # Packet count per connected master and slave (bytes)
system.membus.pkt_count_system.l2.mem_side::total       308864                       # Packet count per connected master and slave (bytes)
system.membus.pkt_count::total                 308864                       # Packet count per connected master and slave (bytes)
system.membus.pkt_size_system.l2.mem_side::system.mem_ctrls.port      8232832                       # Cumulative packet size per connected master and slave (bytes)
system.membus.pkt_size_system.l2.mem_side::total      8232832                       # Cumulative packet size per connected master and slave (bytes)
system.membus.pkt_size::total                 8232832                       # Cumulative packet size per connected master and slave (bytes)
system.membus.snoops                                0                       # Total snoops (count)
system.membus.snoopTraffic                          0                       # Total snoop traffic (bytes)
system.membus.snoop_fanout::samples            103296                       # Request fanout histogram
system.membus.snoop_fanout::mean                    0                       # Request fanout histogram
system.membus.snoop_fanout::stdev                   0                       # Request fanout histogram
system.membus.snoop_fanout::underflows              0      0.00%      0.00% # Request fanout histogram
system.membus.snoop_fanout::0                  103296    100.00%    100.00% # Request fanout histogram
system.membus.snoop_fanout::1                       0      0.00%    100.00% # Request fanout histogram
system.membus.snoop_fanout::overflows               0      0.00%    100.00% # Request fanout histogram
system.membus.snoop_fanout::min_value               0                       # Request fanout histogram
system.membus.snoop_fanout::max_value               0                       # Request fanout histogram
system.membus.snoop_fanout::total              103296                       # Request fanout histogram
system.membus.reqLayer4.occupancy           331977500                       # Layer occupancy (ticks)
system.membus.reqLayer4.utilization               2.4                       # Layer utilization (%)
system.membus.respLayer1.occupancy          557169250                       # Layer occupancy (ticks)
system.membus.respLayer1.utilization              4.0                       # Layer utilization (%)
system.membus.power_state.pwrStateResidencyTicks::UNDEFINED  13981517000                       # Cumulative time (in ticks) in various power states
system.voltage_domain.voltage                       1                       # Voltage in Volts
system.clk_domain.clock                          1000                       # Clock period in ticks
system.cpu0.icache.demand_hits::.cpu0.inst      1197542                       # number of demand (read+write) hits
system.cpu0.icache.demand_hits::total         1197542                       # number of demand (read+write) hits
system.cpu0.icache.overall_hits::.cpu0.inst      1197542                       # number of overall hits
system.cpu0.icache.overall_hits::total        1197542                       # number of overall hits
system.cpu0.icache.demand_misses::.cpu0.inst       262045                       # number of demand (read+write) misses
system.cpu0.icache.demand_misses::total        262045                       # number of demand (read+write) misses
system.cpu0.icache.overall_misses::.cpu0.inst       262045                       # number of overall misses
system.cpu0.icache.overall_misses::total       262045                       # number of overall misses
system.cpu0.icache.demand_miss_latency::.cpu0.inst   5597475500                       # number of demand (read+write) miss cycles
system.cpu0.icache.demand_miss_latency::total   5597475500                       # number of demand (read+write) miss cycles
system.cpu0.icache.overall_miss_latency::.cpu0.inst   5597475500                       # number of overall miss cycles
system.cpu0.icache.overall_miss_latency::total   5597475500                       # number of overall miss cycles
system.cpu0.icache.demand_accesses::.cpu0.inst      1459587                       # number of demand (read+write) accesses
system.cpu0.icache.demand_accesses::total      1459587                       # number of demand (read+write) accesses
system.cpu0.icache.overall_accesses::.cpu0.inst      1459587                       # number of overall (read+write) accesses
system.cpu0.icache.overall_accesses::total      1459587                       # number of overall (read+write) accesses
system.cpu0.icache.demand_miss_rate::.cpu0.inst     0.179534                       # miss rate for demand accesses
system.cpu0.icache.demand_miss_rate::total     0.179534                       # miss rate for demand accesses
system.cpu0.icache.overall_miss_rate::.cpu0.inst     0.179534                       # miss rate for overall accesses
system.cpu0.icache.overall_miss_rate::total     0.179534                       # miss rate for overall accesses
system.cpu0.icache.demand_avg_miss_latency::.cpu0.inst 21360.741476                       # average overall miss latency
system.cpu0.icache.demand_avg_miss_latency::total 21360.741476                       # average overall miss latency
system.cpu0.icache.overall_avg_miss_latency::.cpu0.inst 21360.741476                       # average overall miss latency
system.cpu0.icache.overall_avg_miss_latency::total 21360.741476                       # average overall miss latency
system.cpu0.icache.blocked_cycles::no_mshrs            0                       # number of cycles access was blocked
system.cpu0.icache.blocked_cycles::no_targets            0                       # number of cycles access was blocked
system.cpu0.icache.blocked::no_mshrs                0                       # number of cycles access was blocked
system.cpu0.icache.blocked::no_targets              0                       # number of cycles access was blocked
system.cpu0.icache.avg_blocked_cycles::no_mshrs          nan                       # average number of cycles each access was blocked
system.cpu0.icache.avg_blocked_cycles::no_targets          nan                       # average number of cycles each access was blocked
system.cpu0.icache.writebacks::.writebacks       262029                       # number of writebacks
system.cpu0.icache.writebacks::total           262029                       # number of writebacks
system.cpu0.icache.demand_mshr_misses::.cpu0.inst       262045                       # number of demand (read+write) MSHR misses
system.cpu0.icache.demand_mshr_misses::total       262045                       # number of demand (read+write) MSHR misses
system.cpu0.icache.overall_mshr_misses::.cpu0.inst       262045                       # number of overall MSHR misses
system.cpu0.icache.overall_mshr_misses::total       262045                       # number of overall MSHR misses
system.cpu0.icache.demand_mshr_miss_latency::.cpu0.inst   5335430500                       # number of demand (read+write) MSHR miss cycles
system.cpu0.icache.demand_mshr_miss_latency::total   5335430500                       # number of demand (read+write) MSHR miss cycles
system.cpu0.icache.overall_mshr_miss_latency::.cpu0.inst   5335430500                       # number of overall MSHR miss cycles
system.cpu0.icache.overall_mshr_miss_latency::total   5335430500                       # number of overall MSHR miss cycles
system.cpu0.icache.demand_mshr_miss_rate::.cpu0.inst     0.179534                       # mshr miss rate for demand accesses
system.cpu0.icache.demand_mshr_miss_rate::total     0.179534                       # mshr miss rate for demand accesses
system.cpu0.icache.overall_mshr_miss_rate::.cpu0.inst     0.179534                       # mshr miss rate for overall accesses
system.cpu0.icache.overall_mshr_miss_rate::total     0.179534                       # mshr miss rate for overall accesses
system.cpu0.icache.demand_avg_mshr_miss_latency::.cpu0.inst 20360.741476                       # average overall mshr miss latency
system.cpu0.icache.demand_avg_mshr_miss_latency::total 20360.741476                       # average overall mshr miss latency
system.cpu0.icache.overall_avg_mshr_miss_latency::.cpu0.inst 20360.741476                       # average overall mshr miss latency
system.cpu0.icache.overall_avg_mshr_miss_latency::total 20360.741476                       # average overall mshr miss latency
system.cpu0.icache.replacements                262029                       # number of replacements
system.cpu0.icache.ReadReq_hits::.cpu0.inst      1197542                       # number of ReadReq hits
system.cpu0.icache.ReadReq_hits::total        1197542                       # number of ReadReq hits
system.cpu0.icache.ReadReq_misses::.cpu0.inst       262045                       # number of ReadReq misses
system.cpu0.icache.ReadReq_misses::total       262045                       # number of ReadReq misses
system.cpu0.icache.ReadReq_miss_latency::.cpu0.inst   5597475500                       # number of ReadReq miss cycles
system.cpu0.icache.ReadReq_miss_latency::total   5597475500                       # number of ReadReq miss cycles
system.cpu0.icache.ReadReq_accesses::.cpu0.inst      1459587                       # number of ReadReq accesses(hits+misses)
system.cpu0.icache.ReadReq_accesses::total      1459587                       # number of ReadReq accesses(hits+misses)
system.cpu0.icache.ReadReq_miss_rate::.cpu0.inst     0.179534                       # miss rate for ReadReq accesses
system.cpu0.icache.ReadReq_miss_rate::total     0.179534                       # miss rate for ReadReq accesses
system.cpu0.icache.ReadReq_avg_miss_latency::.cpu0.inst 21360.741476                       # average ReadReq miss latency
system.cpu0.icache.ReadReq_avg_miss_latency::total 21360.741476                       # average ReadReq miss latency
system.cpu0.icache.ReadReq_mshr_misses::.cpu0.inst       262045                       # number of ReadReq MSHR misses
system.cpu0.icache.ReadReq_mshr_misses::total       262045                       # number of ReadReq MSHR misses
system.cpu0.icache.ReadReq_mshr_miss_latency::.cpu0.inst   5335430500                       # number of ReadReq MSHR miss cycles
system.cpu0.icache.ReadReq_mshr_miss_latency::total   5335430500                       # number of ReadReq MSHR miss cycles
system.cpu0.icache.ReadReq_mshr_miss_rate::.cpu0.inst     0.179534                       # mshr miss rate for ReadReq accesses
system.cpu0.icache.ReadReq_mshr_miss_rate::total     0.179534                       # mshr miss rate for ReadReq accesses
system.cpu0.icache.ReadReq_avg_mshr_miss_latency::.cpu0.inst 20360.741476                       # average ReadReq mshr miss latency
system.cpu0.icache.ReadReq_avg_mshr_miss_latency::total 20360.741476                       # average ReadReq mshr miss latency
system.cpu0.icache.power_state.pwrStateResidencyTicks::UNDEFINED  13981517000                       # Cumulative time (in ticks) in various power states
system.cpu0.icache.tags.tagsinuse           15.999021                       # Cycle average of tags in use
system.cpu0.icache.tags.total_refs            1459587                       # Total number of references to valid blocks.
system.cpu0.icache.tags.sampled_refs           262045                       # Sample count of references to valid blocks.
system.cpu0.icache.tags.avg_refs             5.569986                       # Average number of references to valid blocks.
system.cpu0.icache.tags.warmup_cycle            87500                       # Cycle when the warmup percentage was hit.
system.cpu0.icache.tags.occ_blocks::.cpu0.inst    15.999021                       # Average occupied blocks per requestor
system.cpu0.icache.tags.occ_percent::.cpu0.inst     0.999939                       # Average percentage of cache occupancy
system.cpu0.icache.tags.occ_percent::total     0.999939                       # Average percentage of cache occupancy
system.cpu0.icache.tags.occ_task_id_blocks::1024           16                       # Occupied blocks per task id
system.cpu0.icache.tags.age_task_id_blocks_1024::0           16                       # Occupied blocks per task id
system.cpu0.icache.tags.occ_task_id_percent::1024            1                       # Percentage of cache occupancy per task id
system.cpu0.icache.tags.tag_accesses         11938741                       # Number of tag accesses
system.cpu0.icache.tags.data_accesses        11938741                       # Number of data accesses
system.cpu0.icache.tags.power_state.pwrStateResidencyTicks::UNDEFINED  13981517000                       # Cumulative time (in ticks) in various power states
system.cpu0.dtb.walker.power_state.pwrStateResidencyTicks::UNDEFINED  13981517000                       # Cumulative time (in ticks) in various power states
system.cpu0.interrupts.clk_domain.clock          8000                       # Clock period in ticks
system.cpu0.itb_walker_cache.blocked_cycles::no_mshrs            0                       # number of cycles access was blocked
system.cpu0.itb_walker_cache.blocked_cycles::no_targets            0                       # number of cycles access was blocked
system.cpu0.itb_walker_cache.blocked::no_mshrs            0                       # number of cycles access was blocked
system.cpu0.itb_walker_cache.blocked::no_targets            0                       # number of cycles access was blocked
system.cpu0.itb_walker_cache.avg_blocked_cycles::no_mshrs          nan                       # average number of cycles each access was blocked
system.cpu0.itb_walker_cache.avg_blocked_cycles::no_targets          nan                       # average number of cycles each access was blocked
system.cpu0.itb_walker_cache.replacements            0                       # number of replacements
system.cpu0.itb_walker_cache.power_state.pwrStateResidencyTicks::UNDEFINED  13981517000                       # Cumulative time (in ticks) in various power states
system.cpu0.itb_walker_cache.tags.tagsinuse            0                       # Cycle average of tags in use
system.cpu0.itb_walker_cache.tags.total_refs            0                       # Total number of references to valid blocks.
system.cpu0.itb_walker_cache.tags.sampled_refs            0                       # Sample count of references to valid blocks.
system.cpu0.itb_walker_cache.tags.avg_refs          nan                       # Average number of references to valid blocks.
system.cpu0.itb_walker_cache.tags.warmup_cycle            0                       # Cycle when the warmup percentage was hit.
system.cpu0.itb_walker_cache.tags.tag_accesses            0                       # Number of tag accesses
system.cpu0.itb_walker_cache.tags.data_accesses            0                       # Number of data accesses
system.cpu0.itb_walker_cache.tags.power_state.pwrStateResidencyTicks::UNDEFINED  13981517000                       # Cumulative time (in ticks) in various power states
system.cpu0.dtb_walker_cache.blocked_cycles::no_mshrs            0                       # number of cycles access was blocked
system.cpu0.dtb_walker_cache.blocked_cycles::no_targets            0                       # number of cycles access was blocked
system.cpu0.dtb_walker_cache.blocked::no_mshrs            0                       # number of cycles access was blocked
system.cpu0.dtb_walker_cache.blocked::no_targets            0                       # number of cycles access was blocked
system.cpu0.dtb_walker_cache.avg_blocked_cycles::no_mshrs          nan                       # average number of cycles each access was blocked
system.cpu0.dtb_walker_cache.avg_blocked_cycles::no_targets          nan                       # average number of cycles each access was blocked
system.cpu0.dtb_walker_cache.replacements            0                       # number of replacements
system.cpu0.dtb_walker_cache.power_state.pwrStateResidencyTicks::UNDEFINED  13981517000                       # Cumulative time (in ticks) in various power states
system.cpu0.dtb_walker_cache.tags.tagsinuse            0                       # Cycle average of tags in use
system.cpu0.dtb_walker_cache.tags.total_refs            0                       # Total number of references to valid blocks.
system.cpu0.dtb_walker_cache.tags.sampled_refs            0                       # Sample count of references to valid blocks.
system.cpu0.dtb_walker_cache.tags.avg_refs          nan                       # Average number of references to valid blocks.
system.cpu0.dtb_walker_cache.tags.warmup_cycle            0                       # Cycle when the warmup percentage was hit.
system.cpu0.dtb_walker_cache.tags.tag_accesses            0                       # Number of tag accesses
system.cpu0.dtb_walker_cache.tags.data_accesses            0                       # Number of data accesses
system.cpu0.dtb_walker_cache.tags.power_state.pwrStateResidencyTicks::UNDEFINED  13981517000                       # Cumulative time (in ticks) in various power states
system.cpu0.dcache.demand_hits::.cpu0.data       960531                       # number of demand (read+write) hits
system.cpu0.dcache.demand_hits::total          960531                       # number of demand (read+write) hits
system.cpu0.dcache.overall_hits::.cpu0.data       961049                       # number of overall hits
system.cpu0.dcache.overall_hits::total         961049                       # number of overall hits
system.cpu0.dcache.demand_misses::.cpu0.data       228707                       # number of demand (read+write) misses
system.cpu0.dcache.demand_misses::total        228707                       # number of demand (read+write) misses
system.cpu0.dcache.overall_misses::.cpu0.data       229379                       # number of overall misses
system.cpu0.dcache.overall_misses::total       229379                       # number of overall misses
system.cpu0.dcache.demand_miss_latency::.cpu0.data   8138251500                       # number of demand (read+write) miss cycles
system.cpu0.dcache.demand_miss_latency::total   8138251500                       # number of demand (read+write) miss cycles
system.cpu0.dcache.overall_miss_latency::.cpu0.data   8138251500                       # number of overall miss cycles
system.cpu0.dcache.overall_miss_latency::total   8138251500                       # number of overall miss cycles
system.cpu0.dcache.demand_accesses::.cpu0.data      1189238                       # number of demand (read+write) accesses
system.cpu0.dcache.demand_accesses::total      1189238                       # number of demand (read+write) accesses
system.cpu0.dcache.overall_accesses::.cpu0.data      1190428                       # number of overall (read+write) accesses
system.cpu0.dcache.overall_accesses::total      1190428                       # number of overall (read+write) accesses
system.cpu0.dcache.demand_miss_rate::.cpu0.data     0.192314                       # miss rate for demand accesses
system.cpu0.dcache.demand_miss_rate::total     0.192314                       # miss rate for demand accesses
system.cpu0.dcache.overall_miss_rate::.cpu0.data     0.192686                       # miss rate for overall accesses
system.cpu0.dcache.overall_miss_rate::total     0.192686                       # miss rate for overall accesses
system.cpu0.dcache.demand_avg_miss_latency::.cpu0.data 35583.744704                       # average overall miss latency
system.cpu0.dcache.demand_avg_miss_latency::total 35583.744704                       # average overall miss latency
system.cpu0.dcache.overall_avg_miss_latency::.cpu0.data 35479.496815                       # average overall miss latency
system.cpu0.dcache.overall_avg_miss_latency::total 35479.496815                       # average overall miss latency
system.cpu0.dcache.blocked_cycles::no_mshrs            0                       # number of cycles access was blocked
system.cpu0.dcache.blocked_cycles::no_targets            0                       # number of cycles access was blocked
system.cpu0.dcache.blocked::no_mshrs                0                       # number of cycles access was blocked
system.cpu0.dcache.blocked::no_targets              0                       # number of cycles access was blocked
system.cpu0.dcache.avg_blocked_cycles::no_mshrs          nan                       # average number of cycles each access was blocked
system.cpu0.dcache.avg_blocked_cycles::no_targets          nan                       # average number of cycles each access was blocked
system.cpu0.dcache.writebacks::.writebacks        87175                       # number of writebacks
system.cpu0.dcache.writebacks::total            87175                       # number of writebacks
system.cpu0.dcache.demand_mshr_hits::.cpu0.data        43453                       # number of demand (read+write) MSHR hits
system.cpu0.dcache.demand_mshr_hits::total        43453                       # number of demand (read+write) MSHR hits
system.cpu0.dcache.overall_mshr_hits::.cpu0.data        43453                       # number of overall MSHR hits
system.cpu0.dcache.overall_mshr_hits::total        43453                       # number of overall MSHR hits
system.cpu0.dcache.demand_mshr_misses::.cpu0.data       185254                       # number of demand (read+write) MSHR misses
system.cpu0.dcache.demand_mshr_misses::total       185254                       # number of demand (read+write) MSHR misses
system.cpu0.dcache.overall_mshr_misses::.cpu0.data       185852                       # number of overall MSHR misses
system.cpu0.dcache.overall_mshr_misses::total       185852                       # number of overall MSHR misses
system.cpu0.dcache.demand_mshr_miss_latency::.cpu0.data   6373028000                       # number of demand (read+write) MSHR miss cycles
system.cpu0.dcache.demand_mshr_miss_latency::total   6373028000                       # number of demand (read+write) MSHR miss cycles
system.cpu0.dcache.overall_mshr_miss_latency::.cpu0.data   6402178000                       # number of overall MSHR miss cycles
system.cpu0.dcache.overall_mshr_miss_latency::total   6402178000                       # number of overall MSHR miss cycles
system.cpu0.dcache.demand_mshr_miss_rate::.cpu0.data     0.155775                       # mshr miss rate for demand accesses
system.cpu0.dcache.demand_mshr_miss_rate::total     0.155775                       # mshr miss rate for demand accesses
system.cpu0.dcache.overall_mshr_miss_rate::.cpu0.data     0.156122                       # mshr miss rate for overall accesses
system.cpu0.dcache.overall_mshr_miss_rate::total     0.156122                       # mshr miss rate for overall accesses
system.cpu0.dcache.demand_avg_mshr_miss_latency::.cpu0.data 34401.567577                       # average overall mshr miss latency
system.cpu0.dcache.demand_avg_mshr_miss_latency::total 34401.567577                       # average overall mshr miss latency
system.cpu0.dcache.overall_avg_mshr_miss_latency::.cpu0.data 34447.721843                       # average overall mshr miss latency
system.cpu0.dcache.overall_avg_mshr_miss_latency::total 34447.721843                       # average overall mshr miss latency
system.cpu0.dcache.replacements                185836                       # number of replacements
system.cpu0.dcache.ReadReq_hits::.cpu0.data       644032                       # number of ReadReq hits
system.cpu0.dcache.ReadReq_hits::total         644032                       # number of ReadReq hits
system.cpu0.dcache.ReadReq_misses::.cpu0.data       139988                       # number of ReadReq misses
system.cpu0.dcache.ReadReq_misses::total       139988                       # number of ReadReq misses
system.cpu0.dcache.ReadReq_miss_latency::.cpu0.data   5020206000                       # number of ReadReq miss cycles
system.cpu0.dcache.ReadReq_miss_latency::total   5020206000                       # number of ReadReq miss cycles
system.cpu0.dcache.ReadReq_accesses::.cpu0.data       784020                       # number of ReadReq accesses(hits+misses)
system.cpu0.dcache.ReadReq_accesses::total       784020                       # number of ReadReq accesses(hits+misses)
system.cpu0.dcache.ReadReq_miss_rate::.cpu0.data     0.178552                       # miss rate for ReadReq accesses
system.cpu0.dcache.ReadReq_miss_rate::total     0.178552                       # miss rate for ReadReq accesses
system.cpu0.dcache.ReadReq_avg_miss_latency::.cpu0.data 35861.688145                       # average ReadReq miss latency
system.cpu0.dcache.ReadReq_avg_miss_latency::total 35861.688145                       # average ReadReq miss latency
system.cpu0.dcache.ReadReq_mshr_hits::.cpu0.data         4206                       # number of ReadReq MSHR hits
system.cpu0.dcache.ReadReq_mshr_hits::total         4206                       # number of ReadReq MSHR hits
system.cpu0.dcache.ReadReq_mshr_misses::.cpu0.data       135782                       # number of ReadReq MSHR misses
system.cpu0.dcache.ReadReq_mshr_misses::total       135782                       # number of ReadReq MSHR misses
system.cpu0.dcache.ReadReq_mshr_miss_latency::.cpu0.data   4694959500                       # number of ReadReq MSHR miss cycles
system.cpu0.dcache.ReadReq_mshr_miss_latency::total   4694959500                       # number of ReadReq MSHR miss cycles
system.cpu0.dcache.ReadReq_mshr_miss_rate::.cpu0.data     0.173187                       # mshr miss rate for ReadReq accesses
system.cpu0.dcache.ReadReq_mshr_miss_rate::total     0.173187                       # mshr miss rate for ReadReq accesses
system.cpu0.dcache.ReadReq_avg_mshr_miss_latency::.cpu0.data 34577.186225                       # average ReadReq mshr miss latency
system.cpu0.dcache.ReadReq_avg_mshr_miss_latency::total 34577.186225                       # average ReadReq mshr miss latency
system.cpu0.dcache.WriteReq_hits::.cpu0.data       316499                       # number of WriteReq hits
system.cpu0.dcache.WriteReq_hits::total        316499                       # number of WriteReq hits
system.cpu0.dcache.WriteReq_misses::.cpu0.data        88719                       # number of WriteReq misses
system.cpu0.dcache.WriteReq_misses::total        88719                       # number of WriteReq misses
system.cpu0.dcache.WriteReq_miss_latency::.cpu0.data   3118045500                       # number of WriteReq miss cycles
system.cpu0.dcache.WriteReq_miss_latency::total   3118045500                       # number of WriteReq miss cycles
system.cpu0.dcache.WriteReq_accesses::.cpu0.data       405218                       # number of WriteReq accesses(hits+misses)
system.cpu0.dcache.WriteReq_accesses::total       405218                       # number of WriteReq accesses(hits+misses)
system.cpu0.dcache.WriteReq_miss_rate::.cpu0.data     0.218941                       # miss rate for WriteReq accesses
system.cpu0.dcache.WriteReq_miss_rate::total     0.218941                       # miss rate for WriteReq accesses
system.cpu0.dcache.WriteReq_avg_miss_latency::.cpu0.data 35145.183106                       # average WriteReq miss latency
system.cpu0.dcache.WriteReq_avg_miss_latency::total 35145.183106                       # average WriteReq miss latency
system.cpu0.dcache.WriteReq_mshr_hits::.cpu0.data        39247                       # number of WriteReq MSHR hits
system.cpu0.dcache.WriteReq_mshr_hits::total        39247                       # number of WriteReq MSHR hits
system.cpu0.dcache.WriteReq_mshr_misses::.cpu0.data        49472                       # number of WriteReq MSHR misses
system.cpu0.dcache.WriteReq_mshr_misses::total        49472                       # number of WriteReq MSHR misses
system.cpu0.dcache.WriteReq_mshr_miss_latency::.cpu0.data   1678068500                       # number of WriteReq MSHR miss cycles
system.cpu0.dcache.WriteReq_mshr_miss_latency::total   1678068500                       # number of WriteReq MSHR miss cycles
system.cpu0.dcache.WriteReq_mshr_miss_rate::.cpu0.data     0.122087                       # mshr miss rate for WriteReq accesses
system.cpu0.dcache.WriteReq_mshr_miss_rate::total     0.122087                       # mshr miss rate for WriteReq accesses
system.cpu0.dcache.WriteReq_avg_mshr_miss_latency::.cpu0.data 33919.560560                       # average WriteReq mshr miss latency
system.cpu0.dcache.WriteReq_avg_mshr_miss_latency::total 33919.560560                       # average WriteReq mshr miss latency
system.cpu0.dcache.SoftPFReq_hits::.cpu0.data          518                       # number of SoftPFReq hits
system.cpu0.dcache.SoftPFReq_hits::total          518                       # number of SoftPFReq hits
system.cpu0.dcache.SoftPFReq_misses::.cpu0.data          672                       # number of SoftPFReq misses
system.cpu0.dcache.SoftPFReq_misses::total          672                       # number of SoftPFReq misses
system.cpu0.dcache.SoftPFReq_accesses::.cpu0.data         1190                       # number of SoftPFReq accesses(hits+misses)
system.cpu0.dcache.SoftPFReq_accesses::total         1190                       # number of SoftPFReq accesses(hits+misses)
system.cpu0.dcache.SoftPFReq_miss_rate::.cpu0.data     0.564706                       # miss rate for SoftPFReq accesses
system.cpu0.dcache.SoftPFReq_miss_rate::total     0.564706                       # miss rate for SoftPFReq accesses
system.cpu0.dcache.SoftPFReq_mshr_misses::.cpu0.data          598                       # number of SoftPFReq MSHR misses
system.cpu0.dcache.SoftPFReq_mshr_misses::total          598                       # number of SoftPFReq MSHR misses
system.cpu0.dcache.SoftPFReq_mshr_miss_latency::.cpu0.data     29150000                       # number of SoftPFReq MSHR miss cycles
system.cpu0.dcache.SoftPFReq_mshr_miss_latency::total     29150000                       # number of SoftPFReq MSHR miss cycles
system.cpu0.dcache.SoftPFReq_mshr_miss_rate::.cpu0.data     0.502521                       # mshr miss rate for SoftPFReq accesses
system.cpu0.dcache.SoftPFReq_mshr_miss_rate::total     0.502521                       # mshr miss rate for SoftPFReq accesses
system.cpu0.dcache.SoftPFReq_avg_mshr_miss_latency::.cpu0.data 48745.819398                       # average SoftPFReq mshr miss latency
system.cpu0.dcache.SoftPFReq_avg_mshr_miss_latency::total 48745.819398                       # average SoftPFReq mshr miss latency
system.cpu0.dcache.power_state.pwrStateResidencyTicks::UNDEFINED  13981517000                       # Cumulative time (in ticks) in various power states
system.cpu0.dcache.tags.tagsinuse           15.999079                       # Cycle average of tags in use
system.cpu0.dcache.tags.total_refs            1146901                       # Total number of references to valid blocks.
system.cpu0.dcache.tags.sampled_refs           185852                       # Sample count of references to valid blocks.
system.cpu0.dcache.tags.avg_refs             6.171045                       # Average number of references to valid blocks.
system.cpu0.dcache.tags.warmup_cycle           178500                       # Cycle when the warmup percentage was hit.
system.cpu0.dcache.tags.occ_blocks::.cpu0.data    15.999079                       # Average occupied blocks per requestor
system.cpu0.dcache.tags.occ_percent::.cpu0.data     0.999942                       # Average percentage of cache occupancy
system.cpu0.dcache.tags.occ_percent::total     0.999942                       # Average percentage of cache occupancy
system.cpu0.dcache.tags.occ_task_id_blocks::1024           16                       # Occupied blocks per task id
system.cpu0.dcache.tags.age_task_id_blocks_1024::0           16                       # Occupied blocks per task id
system.cpu0.dcache.tags.occ_task_id_percent::1024            1                       # Percentage of cache occupancy per task id
system.cpu0.dcache.tags.tag_accesses          9709276                       # Number of tag accesses
system.cpu0.dcache.tags.data_accesses         9709276                       # Number of data accesses
system.cpu0.dcache.tags.power_state.pwrStateResidencyTicks::UNDEFINED  13981517000                       # Cumulative time (in ticks) in various power states
system.cpu0.power_state.pwrStateResidencyTicks::ON  13981517000                       # Cumulative time (in ticks) in various power states
system.cpu0.itb.walker.power_state.pwrStateResidencyTicks::UNDEFINED  13981517000                       # Cumulative time (in ticks) in various power states
system.cpu1.icache.demand_hits::.cpu1.inst      2429355                       # number of demand (read+write) hits
system.cpu1.icache.demand_hits::total         2429355                       # number of demand (read+write) hits
system.cpu1.icache.overall_hits::.cpu1.inst      2429355                       # number of overall hits
system.cpu1.icache.overall_hits::total        2429355                       # number of overall hits
system.cpu1.icache.demand_misses::.cpu1.inst        13858                       # number of demand (read+write) misses
system.cpu1.icache.demand_misses::total         13858                       # number of demand (read+write) misses
system.cpu1.icache.overall_misses::.cpu1.inst        13858                       # number of overall misses
system.cpu1.icache.overall_misses::total        13858                       # number of overall misses
system.cpu1.icache.demand_miss_latency::.cpu1.inst    317053500                       # number of demand (read+write) miss cycles
system.cpu1.icache.demand_miss_latency::total    317053500                       # number of demand (read+write) miss cycles
system.cpu1.icache.overall_miss_latency::.cpu1.inst    317053500                       # number of overall miss cycles
system.cpu1.icache.overall_miss_latency::total    317053500                       # number of overall miss cycles
system.cpu1.icache.demand_accesses::.cpu1.inst      2443213                       # number of demand (read+write) accesses
system.cpu1.icache.demand_accesses::total      2443213                       # number of demand (read+write) accesses
system.cpu1.icache.overall_accesses::.cpu1.inst      2443213                       # number of overall (read+write) accesses
system.cpu1.icache.overall_accesses::total      2443213                       # number of overall (read+write) accesses
system.cpu1.icache.demand_miss_rate::.cpu1.inst     0.005672                       # miss rate for demand accesses
system.cpu1.icache.demand_miss_rate::total     0.005672                       # miss rate for demand accesses
system.cpu1.icache.overall_miss_rate::.cpu1.inst     0.005672                       # miss rate for overall accesses
system.cpu1.icache.overall_miss_rate::total     0.005672                       # miss rate for overall accesses
system.cpu1.icache.demand_avg_miss_latency::.cpu1.inst 22878.734305                       # average overall miss latency
system.cpu1.icache.demand_avg_miss_latency::total 22878.734305                       # average overall miss latency
system.cpu1.icache.overall_avg_miss_latency::.cpu1.inst 22878.734305                       # average overall miss latency
system.cpu1.icache.overall_avg_miss_latency::total 22878.734305                       # average overall miss latency
system.cpu1.icache.blocked_cycles::no_mshrs            0                       # number of cycles access was blocked
system.cpu1.icache.blocked_cycles::no_targets            0                       # number of cycles access was blocked
system.cpu1.icache.blocked::no_mshrs                0                       # number of cycles access was blocked
system.cpu1.icache.blocked::no_targets              0                       # number of cycles access was blocked
system.cpu1.icache.avg_blocked_cycles::no_mshrs          nan                       # average number of cycles each access was blocked
system.cpu1.icache.avg_blocked_cycles::no_targets          nan                       # average number of cycles each access was blocked
system.cpu1.icache.writebacks::.writebacks        13842                       # number of writebacks
system.cpu1.icache.writebacks::total            13842                       # number of writebacks
system.cpu1.icache.demand_mshr_misses::.cpu1.inst        13858                       # number of demand (read+write) MSHR misses
system.cpu1.icache.demand_mshr_misses::total        13858                       # number of demand (read+write) MSHR misses
system.cpu1.icache.overall_mshr_misses::.cpu1.inst        13858                       # number of overall MSHR misses
system.cpu1.icache.overall_mshr_misses::total        13858                       # number of overall MSHR misses
system.cpu1.icache.demand_mshr_miss_latency::.cpu1.inst    303195500                       # number of demand (read+write) MSHR miss cycles
system.cpu1.icache.demand_mshr_miss_latency::total    303195500                       # number of demand (read+write) MSHR miss cycles
system.cpu1.icache.overall_mshr_miss_latency::.cpu1.inst    303195500                       # number of overall MSHR miss cycles
system.cpu1.icache.overall_mshr_miss_latency::total    303195500                       # number of overall MSHR miss cycles
system.cpu1.icache.demand_mshr_miss_rate::.cpu1.inst     0.005672                       # mshr miss rate for demand accesses
system.cpu1.icache.demand_mshr_miss_rate::total     0.005672                       # mshr miss rate for demand accesses
system.cpu1.icache.overall_mshr_miss_rate::.cpu1.inst     0.005672                       # mshr miss rate for overall accesses
system.cpu1.icache.overall_mshr_miss_rate::total     0.005672                       # mshr miss rate for overall accesses
system.cpu1.icache.demand_avg_mshr_miss_latency::.cpu1.inst 21878.734305                       # average overall mshr miss latency
system.cpu1.icache.demand_avg_mshr_miss_latency::total 21878.734305                       # average overall mshr miss latency
system.cpu1.icache.overall_avg_mshr_miss_latency::.cpu1.inst 21878.734305                       # average overall mshr miss latency
system.cpu1.icache.overall_avg_mshr_miss_latency::total 21878.734305                       # average overall mshr miss latency
system.cpu1.icache.replacements                 13842                       # number of replacements
system.cpu1.icache.ReadReq_hits::.cpu1.inst      2429355                       # number of ReadReq hits
system.cpu1.icache.ReadReq_hits::total        2429355                       # number of ReadReq hits
system.cpu1.icache.ReadReq_misses::.cpu1.inst        13858                       # number of ReadReq misses
system.cpu1.icache.ReadReq_misses::total        13858                       # number of ReadReq misses
system.cpu1.icache.ReadReq_miss_latency::.cpu1.inst    317053500                       # number of ReadReq miss cycles
system.cpu1.icache.ReadReq_miss_latency::total    317053500                       # number of ReadReq miss cycles
system.cpu1.icache.ReadReq_accesses::.cpu1.inst      2443213                       # number of ReadReq accesses(hits+misses)
system.cpu1.icache.ReadReq_accesses::total      2443213                       # number of ReadReq accesses(hits+misses)
system.cpu1.icache.ReadReq_miss_rate::.cpu1.inst     0.005672                       # miss rate for ReadReq accesses
system.cpu1.icache.ReadReq_miss_rate::total     0.005672                       # miss rate for ReadReq accesses
system.cpu1.icache.ReadReq_avg_miss_latency::.cpu1.inst 22878.734305                       # average ReadReq miss latency
system.cpu1.icache.ReadReq_avg_miss_latency::total 22878.734305                       # average ReadReq miss latency
system.cpu1.icache.ReadReq_mshr_misses::.cpu1.inst        13858                       # number of ReadReq MSHR misses
system.cpu1.icache.ReadReq_mshr_misses::total        13858                       # number of ReadReq MSHR misses
system.cpu1.icache.ReadReq_mshr_miss_latency::.cpu1.inst    303195500                       # number of ReadReq MSHR miss cycles
system.cpu1.icache.ReadReq_mshr_miss_latency::total    303195500                       # number of ReadReq MSHR miss cycles
system.cpu1.icache.ReadReq_mshr_miss_rate::.cpu1.inst     0.005672                       # mshr miss rate for ReadReq accesses
system.cpu1.icache.ReadReq_mshr_miss_rate::total     0.005672                       # mshr miss rate for ReadReq accesses
system.cpu1.icache.ReadReq_avg_mshr_miss_latency::.cpu1.inst 21878.734305                       # average ReadReq mshr miss latency
system.cpu1.icache.ReadReq_avg_mshr_miss_latency::total 21878.734305                       # average ReadReq mshr miss latency
system.cpu1.icache.power_state.pwrStateResidencyTicks::UNDEFINED  13981517000                       # Cumulative time (in ticks) in various power states
system.cpu1.icache.tags.tagsinuse           15.998976                       # Cycle average of tags in use
system.cpu1.icache.tags.total_refs            2443213                       # Total number of references to valid blocks.
system.cpu1.icache.tags.sampled_refs            13858                       # Sample count of references to valid blocks.
system.cpu1.icache.tags.avg_refs           176.303435                       # Average number of references to valid blocks.
system.cpu1.icache.tags.warmup_cycle            92500                       # Cycle when the warmup percentage was hit.
system.cpu1.icache.tags.occ_blocks::.cpu1.inst    15.998976                       # Average occupied blocks per requestor
system.cpu1.icache.tags.occ_percent::.cpu1.inst     0.999936                       # Average percentage of cache occupancy
system.cpu1.icache.tags.occ_percent::total     0.999936                       # Average percentage of cache occupancy
system.cpu1.icache.tags.occ_task_id_blocks::1024           16                       # Occupied blocks per task id
system.cpu1.icache.tags.age_task_id_blocks_1024::1           16                       # Occupied blocks per task id
system.cpu1.icache.tags.occ_task_id_percent::1024            1                       # Percentage of cache occupancy per task id
system.cpu1.icache.tags.tag_accesses         19559562                       # Number of tag accesses
system.cpu1.icache.tags.data_accesses        19559562                       # Number of data accesses
system.cpu1.icache.tags.power_state.pwrStateResidencyTicks::UNDEFINED  13981517000                       # Cumulative time (in ticks) in various power states
system.cpu1.dtb.walker.power_state.pwrStateResidencyTicks::UNDEFINED  13981517000                       # Cumulative time (in ticks) in various power states
system.cpu1.interrupts.clk_domain.clock          8000                       # Clock period in ticks
system.cpu1.itb_walker_cache.blocked_cycles::no_mshrs            0                       # number of cycles access was blocked
system.cpu1.itb_walker_cache.blocked_cycles::no_targets            0                       # number of cycles access was blocked
system.cpu1.itb_walker_cache.blocked::no_mshrs            0                       # number of cycles access was blocked
system.cpu1.itb_walker_cache.blocked::no_targets            0                       # number of cycles access was blocked
system.cpu1.itb_walker_cache.avg_blocked_cycles::no_mshrs          nan                       # average number of cycles each access was blocked
system.cpu1.itb_walker_cache.avg_blocked_cycles::no_targets          nan                       # average number of cycles each access was blocked
system.cpu1.itb_walker_cache.replacements            0                       # number of replacements
system.cpu1.itb_walker_cache.power_state.pwrStateResidencyTicks::UNDEFINED  13981517000                       # Cumulative time (in ticks) in various power states
system.cpu1.itb_walker_cache.tags.tagsinuse            0                       # Cycle average of tags in use
system.cpu1.itb_walker_cache.tags.total_refs            0                       # Total number of references to valid blocks.
system.cpu1.itb_walker_cache.tags.sampled_refs            0                       # Sample count of references to valid blocks.
system.cpu1.itb_walker_cache.tags.avg_refs          nan                       # Average number of references to valid blocks.
system.cpu1.itb_walker_cache.tags.warmup_cycle            0                       # Cycle when the warmup percentage was hit.
system.cpu1.itb_walker_cache.tags.tag_accesses            0                       # Number of tag accesses
system.cpu1.itb_walker_cache.tags.data_accesses            0                       # Number of data accesses
system.cpu1.itb_walker_cache.tags.power_state.pwrStateResidencyTicks::UNDEFINED  13981517000                       # Cumulative time (in ticks) in various power states
system.cpu1.dtb_walker_cache.blocked_cycles::no_mshrs            0                       # number of cycles access was blocked
system.cpu1.dtb_walker_cache.blocked_cycles::no_targets            0                       # number of cycles access was blocked
system.cpu1.dtb_walker_cache.blocked::no_mshrs            0                       # number of cycles access was blocked
system.cpu1.dtb_walker_cache.blocked::no_targets            0                       # number of cycles access was blocked
system.cpu1.dtb_walker_cache.avg_blocked_cycles::no_mshrs          nan                       # average number of cycles each access was blocked
system.cpu1.dtb_walker_cache.avg_blocked_cycles::no_targets          nan                       # average number of cycles each access was blocked
system.cpu1.dtb_walker_cache.replacements            0                       # number of replacements
system.cpu1.dtb_walker_cache.power_state.pwrStateResidencyTicks::UNDEFINED  13981517000                       # Cumulative time (in ticks) in various power states
system.cpu1.dtb_walker_cache.tags.tagsinuse            0                       # Cycle average of tags in use
system.cpu1.dtb_walker_cache.tags.total_refs            0                       # Total number of references to valid blocks.
system.cpu1.dtb_walker_cache.tags.sampled_refs            0                       # Sample count of references to valid blocks.
system.cpu1.dtb_walker_cache.tags.avg_refs          nan                       # Average number of references to valid blocks.
system.cpu1.dtb_walker_cache.tags.warmup_cycle            0                       # Cycle when the warmup percentage was hit.
system.cpu1.dtb_walker_cache.tags.tag_accesses            0                       # Number of tag accesses
system.cpu1.dtb_walker_cache.tags.data_accesses            0                       # Number of data accesses
system.cpu1.dtb_walker_cache.tags.power_state.pwrStateResidencyTicks::UNDEFINED  13981517000                       # Cumulative time (in ticks) in various power states
system.cpu1.dcache.demand_hits::.cpu1.data      5861357                       # number of demand (read+write) hits
system.cpu1.dcache.demand_hits::total         5861357                       # number of demand (read+write) hits
system.cpu1.dcache.overall_hits::.cpu1.data      5861677                       # number of overall hits
system.cpu1.dcache.overall_hits::total        5861677                       # number of overall hits
system.cpu1.dcache.demand_misses::.cpu1.data       226583                       # number of demand (read+write) misses
system.cpu1.dcache.demand_misses::total        226583                       # number of demand (read+write) misses
system.cpu1.dcache.overall_misses::.cpu1.data       233654                       # number of overall misses
system.cpu1.dcache.overall_misses::total       233654                       # number of overall misses
system.cpu1.dcache.demand_miss_latency::.cpu1.data   4076918996                       # number of demand (read+write) miss cycles
system.cpu1.dcache.demand_miss_latency::total   4076918996                       # number of demand (read+write) miss cycles
system.cpu1.dcache.overall_miss_latency::.cpu1.data   4076918996                       # number of overall miss cycles
system.cpu1.dcache.overall_miss_latency::total   4076918996                       # number of overall miss cycles
system.cpu1.dcache.demand_accesses::.cpu1.data      6087940                       # number of demand (read+write) accesses
system.cpu1.dcache.demand_accesses::total      6087940                       # number of demand (read+write) accesses
system.cpu1.dcache.overall_accesses::.cpu1.data      6095331                       # number of overall (read+write) accesses
system.cpu1.dcache.overall_accesses::total      6095331                       # number of overall (read+write) accesses
system.cpu1.dcache.demand_miss_rate::.cpu1.data     0.037218                       # miss rate for demand accesses
system.cpu1.dcache.demand_miss_rate::total     0.037218                       # miss rate for demand accesses
system.cpu1.dcache.overall_miss_rate::.cpu1.data     0.038333                       # miss rate for overall accesses
system.cpu1.dcache.overall_miss_rate::total     0.038333                       # miss rate for overall accesses
system.cpu1.dcache.demand_avg_miss_latency::.cpu1.data 17993.048887                       # average overall miss latency
system.cpu1.dcache.demand_avg_miss_latency::total 17993.048887                       # average overall miss latency
system.cpu1.dcache.overall_avg_miss_latency::.cpu1.data 17448.530716                       # average overall miss latency
system.cpu1.dcache.overall_avg_miss_latency::total 17448.530716                       # average overall miss latency
system.cpu1.dcache.blocked_cycles::no_mshrs         2394                       # number of cycles access was blocked
system.cpu1.dcache.blocked_cycles::no_targets            0                       # number of cycles access was blocked
system.cpu1.dcache.blocked::no_mshrs               49                       # number of cycles access was blocked
system.cpu1.dcache.blocked::no_targets              0                       # number of cycles access was blocked
system.cpu1.dcache.avg_blocked_cycles::no_mshrs    48.857143                       # average number of cycles each access was blocked
system.cpu1.dcache.avg_blocked_cycles::no_targets          nan                       # average number of cycles each access was blocked
system.cpu1.dcache.writebacks::.writebacks        61478                       # number of writebacks
system.cpu1.dcache.writebacks::total            61478                       # number of writebacks
system.cpu1.dcache.demand_mshr_hits::.cpu1.data         8963                       # number of demand (read+write) MSHR hits
system.cpu1.dcache.demand_mshr_hits::total         8963                       # number of demand (read+write) MSHR hits
system.cpu1.dcache.overall_mshr_hits::.cpu1.data         8963                       # number of overall MSHR hits
system.cpu1.dcache.overall_mshr_hits::total         8963                       # number of overall MSHR hits
system.cpu1.dcache.demand_mshr_misses::.cpu1.data       217620                       # number of demand (read+write) MSHR misses
system.cpu1.dcache.demand_mshr_misses::total       217620                       # number of demand (read+write) MSHR misses
system.cpu1.dcache.overall_mshr_misses::.cpu1.data       221363                       # number of overall MSHR misses
system.cpu1.dcache.overall_mshr_misses::total       221363                       # number of overall MSHR misses
system.cpu1.dcache.demand_mshr_miss_latency::.cpu1.data   3616886000                       # number of demand (read+write) MSHR miss cycles
system.cpu1.dcache.demand_mshr_miss_latency::total   3616886000                       # number of demand (read+write) MSHR miss cycles
system.cpu1.dcache.overall_mshr_miss_latency::.cpu1.data   3912870500                       # number of overall MSHR miss cycles
system.cpu1.dcache.overall_mshr_miss_latency::total   3912870500                       # number of overall MSHR miss cycles
system.cpu1.dcache.demand_mshr_miss_rate::.cpu1.data     0.035746                       # mshr miss rate for demand accesses
system.cpu1.dcache.demand_mshr_miss_rate::total     0.035746                       # mshr miss rate for demand accesses
system.cpu1.dcache.overall_mshr_miss_rate::.cpu1.data     0.036317                       # mshr miss rate for overall accesses
system.cpu1.dcache.overall_mshr_miss_rate::total     0.036317                       # mshr miss rate for overall accesses
system.cpu1.dcache.demand_avg_mshr_miss_latency::.cpu1.data 16620.191159                       # average overall mshr miss latency
system.cpu1.dcache.demand_avg_mshr_miss_latency::total 16620.191159                       # average overall mshr miss latency
system.cpu1.dcache.overall_avg_mshr_miss_latency::.cpu1.data 17676.262519                       # average overall mshr miss latency
system.cpu1.dcache.overall_avg_mshr_miss_latency::total 17676.262519                       # average overall mshr miss latency
system.cpu1.dcache.replacements                221347                       # number of replacements
system.cpu1.dcache.ReadReq_hits::.cpu1.data      3983157                       # number of ReadReq hits
system.cpu1.dcache.ReadReq_hits::total        3983157                       # number of ReadReq hits
system.cpu1.dcache.ReadReq_misses::.cpu1.data       163094                       # number of ReadReq misses
system.cpu1.dcache.ReadReq_misses::total       163094                       # number of ReadReq misses
system.cpu1.dcache.ReadReq_miss_latency::.cpu1.data   2414415000                       # number of ReadReq miss cycles
system.cpu1.dcache.ReadReq_miss_latency::total   2414415000                       # number of ReadReq miss cycles
system.cpu1.dcache.ReadReq_accesses::.cpu1.data      4146251                       # number of ReadReq accesses(hits+misses)
system.cpu1.dcache.ReadReq_accesses::total      4146251                       # number of ReadReq accesses(hits+misses)
system.cpu1.dcache.ReadReq_miss_rate::.cpu1.data     0.039335                       # miss rate for ReadReq accesses
system.cpu1.dcache.ReadReq_miss_rate::total     0.039335                       # miss rate for ReadReq accesses
system.cpu1.dcache.ReadReq_avg_miss_latency::.cpu1.data 14803.824788                       # average ReadReq miss latency
system.cpu1.dcache.ReadReq_avg_miss_latency::total 14803.824788                       # average ReadReq miss latency
system.cpu1.dcache.ReadReq_mshr_hits::.cpu1.data          473                       # number of ReadReq MSHR hits
system.cpu1.dcache.ReadReq_mshr_hits::total          473                       # number of ReadReq MSHR hits
[...]
system.mem_ctrls.bytesPerActivate::128-255        12586     27.77%     81.65% # Bytes accessed per row activation
system.mem_ctrls.bytesPerActivate::256-383         2967      6.55%     88.20% # Bytes accessed per row activation
system.mem_ctrls.bytesPerActivate::384-511         1456      3.21%     91.41% # Bytes accessed per row activation
system.mem_ctrls.bytesPerActivate::512-639         1232      2.72%     94.13% # Bytes accessed per row activation
system.mem_ctrls.bytesPerActivate::640-767          398      0.88%     95.00% # Bytes accessed per row activation
system.mem_ctrls.bytesPerActivate::768-895          262      0.58%     95.58% # Bytes accessed per row activation
system.mem_ctrls.bytesPerActivate::896-1023          233      0.51%     96.10% # Bytes accessed per row activation
system.mem_ctrls.bytesPerActivate::1024-1151         1769      3.90%    100.00% # Bytes accessed per row activation
system.mem_ctrls.bytesPerActivate::total        45320                       # Bytes accessed per row activation
system.mem_ctrls.rdPerTurnAround::samples         1467                       # Reads before turning the bus around for writes
system.mem_ctrls.rdPerTurnAround::mean      68.765508                       # Reads before turning the bus around for writes
system.mem_ctrls.rdPerTurnAround::gmean     35.138295                       # Reads before turning the bus around for writes
system.mem_ctrls.rdPerTurnAround::stdev    101.935884                       # Reads before turning the bus around for writes
system.mem_ctrls.rdPerTurnAround::0-63           1077     73.42%     73.42% # Reads before turning the bus around for writes
system.mem_ctrls.rdPerTurnAround::64-127          127      8.66%     82.07% # Reads before turning the bus around for writes
system.mem_ctrls.rdPerTurnAround::128-191          100      6.82%     88.89% # Reads before turning the bus around for writes
system.mem_ctrls.rdPerTurnAround::192-255           63      4.29%     93.18% # Reads before turning the bus around for writes
system.mem_ctrls.rdPerTurnAround::256-319           48      3.27%     96.46% # Reads before turning the bus around for writes
system.mem_ctrls.rdPerTurnAround::320-383           29      1.98%     98.43% # Reads before turning the bus around for writes
system.mem_ctrls.rdPerTurnAround::384-447            8      0.55%     98.98% # Reads before turning the bus around for writes
system.mem_ctrls.rdPerTurnAround::448-511            7      0.48%     99.45% # Reads before turning the bus around for writes
system.mem_ctrls.rdPerTurnAround::512-575            2      0.14%     99.59% # Reads before turning the bus around for writes
system.mem_ctrls.rdPerTurnAround::576-639            3      0.20%     99.80% # Reads before turning the bus around for writes
system.mem_ctrls.rdPerTurnAround::640-703            1      0.07%     99.86% # Reads before turning the bus around for writes
system.mem_ctrls.rdPerTurnAround::768-831            1      0.07%     99.93% # Reads before turning the bus around for writes
system.mem_ctrls.rdPerTurnAround::1216-1279            1      0.07%    100.00% # Reads before turning the bus around for writes
system.mem_ctrls.rdPerTurnAround::total          1467                       # Reads before turning the bus around for writes
system.mem_ctrls.wrPerTurnAround::samples         1467                       # Writes before turning the bus around for reads
system.mem_ctrls.wrPerTurnAround::mean      16.376278                       # Writes before turning the bus around for reads
system.mem_ctrls.wrPerTurnAround::gmean     16.357518                       # Writes before turning the bus around for reads
system.mem_ctrls.wrPerTurnAround::stdev      0.806815                       # Writes before turning the bus around for reads
system.mem_ctrls.wrPerTurnAround::16             1192     81.25%     81.25% # Writes before turning the bus around for reads
system.mem_ctrls.wrPerTurnAround::17               23      1.57%     82.82% # Writes before turning the bus around for reads
system.mem_ctrls.wrPerTurnAround::18              230     15.68%     98.50% # Writes before turning the bus around for reads
system.mem_ctrls.wrPerTurnAround::19               19      1.30%     99.80% # Writes before turning the bus around for reads
system.mem_ctrls.wrPerTurnAround::20                3      0.20%    100.00% # Writes before turning the bus around for reads
system.mem_ctrls.wrPerTurnAround::total          1467                       # Writes before turning the bus around for reads
system.mem_ctrls.bytesReadDRAM                6458304                       # Total number of bytes read from DRAM
system.mem_ctrls.bytesReadWrQ                  152640                       # Total number of bytes read from write queue
system.mem_ctrls.bytesWritten                 1537536                       # Total number of bytes written to DRAM
system.mem_ctrls.bytesReadSys                 6610944                       # Total read bytes from the system interface side
system.mem_ctrls.bytesWrittenSys              1621888                       # Total written bytes from the system interface side
system.mem_ctrls.avgRdBW                       461.92                       # Average DRAM read bandwidth in MiByte/s
system.mem_ctrls.avgWrBW                       109.97                       # Average achieved write bandwidth in MiByte/s
system.mem_ctrls.avgRdBWSys                    472.83                       # Average system read bandwidth in MiByte/s
system.mem_ctrls.avgWrBWSys                    116.00                       # Average system write bandwidth in MiByte/s
system.mem_ctrls.peakBW                      12800.00                       # Theoretical peak bandwidth in MiByte/s
system.mem_ctrls.busUtil                         4.47                       # Data bus utilization in percentage
system.mem_ctrls.busUtilRead                     3.61                       # Data bus utilization in percentage for reads
system.mem_ctrls.busUtilWrite                    0.86                       # Data bus utilization in percentage for writes
system.mem_ctrls.totGap                   13981502000                       # Total gap between requests
system.mem_ctrls.avgGap                     108688.74                       # Average gap between requests
system.mem_ctrls.masterReadBytes::.cpu0.inst      1939392                       # Per-master bytes read from memory
system.mem_ctrls.masterReadBytes::.cpu0.data      3452416                       # Per-master bytes read from memory
system.mem_ctrls.masterReadBytes::.cpu1.inst       118656                       # Per-master bytes read from memory
system.mem_ctrls.masterReadBytes::.cpu1.data       947840                       # Per-master bytes read from memory
system.mem_ctrls.masterWriteBytes::.writebacks      1537536                       # Per-master bytes write to memory
system.mem_ctrls.masterReadRate::.cpu0.inst 138711128.413318812847                       # Per-master bytes read from memory rate (Bytes/sec)
system.mem_ctrls.masterReadRate::.cpu0.data 246927139.594365894794                       # Per-master bytes read from memory rate (Bytes/sec)
system.mem_ctrls.masterReadRate::.cpu1.inst 8486632.745216416195                       # Per-master bytes read from memory rate (Bytes/sec)
system.mem_ctrls.masterReadRate::.cpu1.data 67792357.581798881292                       # Per-master bytes read from memory rate (Bytes/sec)
system.mem_ctrls.masterWriteRate::.writebacks 109969182.886234730482                       # Per-master bytes write to memory rate (Bytes/sec)
system.mem_ctrls.masterReadAccesses::.cpu0.inst        30303                       # Per-master read serviced memory accesses
system.mem_ctrls.masterReadAccesses::.cpu0.data        56266                       # Per-master read serviced memory accesses
system.mem_ctrls.masterReadAccesses::.cpu1.inst         1854                       # Per-master read serviced memory accesses
system.mem_ctrls.masterReadAccesses::.cpu1.data        14873                       # Per-master read serviced memory accesses
system.mem_ctrls.masterWriteAccesses::.writebacks        25342                       # Per-master write serviced memory accesses
system.mem_ctrls.masterReadTotalLat::.cpu0.inst    925655750                       # Per-master read total memory access latency
system.mem_ctrls.masterReadTotalLat::.cpu0.data   1872412000                       # Per-master read total memory access latency
system.mem_ctrls.masterReadTotalLat::.cpu1.inst     57109000                       # Per-master read total memory access latency
system.mem_ctrls.masterReadTotalLat::.cpu1.data    499612500                       # Per-master read total memory access latency
system.mem_ctrls.masterWriteTotalLat::.writebacks 336753894250                       # Per-master write total memory access latency
system.mem_ctrls.masterReadAvgLat::.cpu0.inst     30546.67                       # Per-master read average memory access latency
system.mem_ctrls.masterReadAvgLat::.cpu0.data     33277.86                       # Per-master read average memory access latency
system.mem_ctrls.masterReadAvgLat::.cpu1.inst     30803.13                       # Per-master read average memory access latency
system.mem_ctrls.masterReadAvgLat::.cpu1.data     33591.91                       # Per-master read average memory access latency
system.mem_ctrls.masterWriteAvgLat::.writebacks  13288370.86                       # Per-master write average memory access latency
system.mem_ctrls.pageHitRate                    63.70                       # Row buffer hit rate, read and write combined
system.mem_ctrls.rank1.actEnergy            126677880                       # Energy for activate commands per rank (pJ)
system.mem_ctrls.rank1.preEnergy             67304325                       # Energy for precharge commands per rank (pJ)
system.mem_ctrls.rank1.readEnergy           314616960                       # Energy for read commands per rank (pJ)
system.mem_ctrls.rank1.writeEnergy           64326060                       # Energy for write commands per rank (pJ)
system.mem_ctrls.rank1.refreshEnergy     1103278800.000000                       # Energy for refresh commands per rank (pJ)
system.mem_ctrls.rank1.actBackEnergy       5934216990                       # Energy for active background per rank (pJ)
system.mem_ctrls.rank1.preBackEnergy        371667360                       # Energy for precharge background per rank (pJ)
system.mem_ctrls.rank1.actPowerDownEnergy            0                       # Energy for active power-down per rank (pJ)
system.mem_ctrls.rank1.prePowerDownEnergy            0                       # Energy for precharge power-down per rank (pJ)
system.mem_ctrls.rank1.selfRefreshEnergy            0                       # Energy for self refresh per rank (pJ)
system.mem_ctrls.rank1.totalEnergy         7982088375                       # Total energy per rank (pJ)
system.mem_ctrls.rank1.averagePower        570.902884                       # Core power per rank (mW)
system.mem_ctrls.rank1.totalIdleTime                0                       # Total Idle time Per DRAM Rank
system.mem_ctrls.rank1.memoryStateTime::IDLE    909845000                       # Time in different power states
system.mem_ctrls.rank1.memoryStateTime::REF    466700000                       # Time in different power states
system.mem_ctrls.rank1.memoryStateTime::SREF            0                       # Time in different power states
system.mem_ctrls.rank1.memoryStateTime::PRE_PDN            0                       # Time in different power states
system.mem_ctrls.rank1.memoryStateTime::ACT  12604972000                       # Time in different power states
system.mem_ctrls.rank1.memoryStateTime::ACT_PDN            0                       # Time in different power states
system.mem_ctrls.rank0.actEnergy            197006880                       # Energy for activate commands per rank (pJ)
system.mem_ctrls.rank0.preEnergy            104685075                       # Energy for precharge commands per rank (pJ)
system.mem_ctrls.rank0.readEnergy           405887580                       # Energy for read commands per rank (pJ)
system.mem_ctrls.rank0.writeEnergy           61079220                       # Energy for write commands per rank (pJ)
system.mem_ctrls.rank0.refreshEnergy     1103278800.000000                       # Energy for refresh commands per rank (pJ)
system.mem_ctrls.rank0.actBackEnergy       5997789090                       # Energy for active background per rank (pJ)
system.mem_ctrls.rank0.preBackEnergy        318132960                       # Energy for precharge background per rank (pJ)
system.mem_ctrls.rank0.actPowerDownEnergy            0                       # Energy for active power-down per rank (pJ)
system.mem_ctrls.rank0.prePowerDownEnergy            0                       # Energy for precharge power-down per rank (pJ)
system.mem_ctrls.rank0.selfRefreshEnergy            0                       # Energy for self refresh per rank (pJ)
system.mem_ctrls.rank0.totalEnergy         8187859605                       # Total energy per rank (pJ)
system.mem_ctrls.rank0.averagePower        585.620259                       # Core power per rank (mW)
system.mem_ctrls.rank0.totalIdleTime                0                       # Total Idle time Per DRAM Rank
system.mem_ctrls.rank0.memoryStateTime::IDLE    775595250                       # Time in different power states
system.mem_ctrls.rank0.memoryStateTime::REF    466700000                       # Time in different power states
system.mem_ctrls.rank0.memoryStateTime::SREF            0                       # Time in different power states
system.mem_ctrls.rank0.memoryStateTime::PRE_PDN            0                       # Time in different power states
system.mem_ctrls.rank0.memoryStateTime::ACT  12739221750                       # Time in different power states
system.mem_ctrls.rank0.memoryStateTime::ACT_PDN            0                       # Time in different power states
system.mem_ctrls.power_state.pwrStateResidencyTicks::UNDEFINED  13981517000                       # Cumulative time (in ticks) in various power states
system.cpu_clk_domain.clock                       500                       # Clock period in ticks
system.tol2bus.trans_dist::ReadResp            578621                       # Transaction distribution
system.tol2bus.trans_dist::WritebackDirty       173995                       # Transaction distribution
system.tol2bus.trans_dist::WritebackClean       275871                       # Transaction distribution
system.tol2bus.trans_dist::CleanEvict          337290                       # Transaction distribution
system.tol2bus.trans_dist::ReadExReq           104497                       # Transaction distribution
system.tol2bus.trans_dist::ReadExResp          104497                       # Transaction distribution
system.tol2bus.trans_dist::ReadCleanReq        275903                       # Transaction distribution
system.tol2bus.trans_dist::ReadSharedReq       302718                       # Transaction distribution
system.tol2bus.pkt_count_system.cpu0.icache.mem_side::system.l2.cpu_side       786119                       # Packet count per connected master and slave (bytes)
system.tol2bus.pkt_count_system.cpu0.dcache.mem_side::system.l2.cpu_side       557540                       # Packet count per connected master and slave (bytes)
system.tol2bus.pkt_count_system.cpu1.icache.mem_side::system.l2.cpu_side        41558                       # Packet count per connected master and slave (bytes)
system.tol2bus.pkt_count_system.cpu1.dcache.mem_side::system.l2.cpu_side       664073                       # Packet count per connected master and slave (bytes)
system.tol2bus.pkt_count::total               2049290                       # Packet count per connected master and slave (bytes)
system.tol2bus.pkt_size_system.cpu0.icache.mem_side::system.l2.cpu_side     33540736                       # Cumulative packet size per connected master and slave (bytes)
system.tol2bus.pkt_size_system.cpu0.dcache.mem_side::system.l2.cpu_side     17473728                       # Cumulative packet size per connected master and slave (bytes)
system.tol2bus.pkt_size_system.cpu1.icache.mem_side::system.l2.cpu_side      1772800                       # Cumulative packet size per connected master and slave (bytes)
system.tol2bus.pkt_size_system.cpu1.dcache.mem_side::system.l2.cpu_side     18101824                       # Cumulative packet size per connected master and slave (bytes)
system.tol2bus.pkt_size::total               70889088                       # Cumulative packet size per connected master and slave (bytes)
system.tol2bus.snoops                          104102                       # Total snoops (count)
system.tol2bus.snoopTraffic                   1621888                       # Total snoop traffic (bytes)
system.tol2bus.snoop_fanout::samples           787220                       # Request fanout histogram
system.tol2bus.snoop_fanout::mean            0.011351                       # Request fanout histogram
system.tol2bus.snoop_fanout::stdev           0.105936                       # Request fanout histogram
system.tol2bus.snoop_fanout::underflows             0      0.00%      0.00% # Request fanout histogram
system.tol2bus.snoop_fanout::0                 778284     98.86%     98.86% # Request fanout histogram
system.tol2bus.snoop_fanout::1                   8936      1.14%    100.00% # Request fanout histogram
system.tol2bus.snoop_fanout::2                      0      0.00%    100.00% # Request fanout histogram
system.tol2bus.snoop_fanout::3                      0      0.00%    100.00% # Request fanout histogram
system.tol2bus.snoop_fanout::4                      0      0.00%    100.00% # Request fanout histogram
system.tol2bus.snoop_fanout::5                      0      0.00%    100.00% # Request fanout histogram
system.tol2bus.snoop_fanout::6                      0      0.00%    100.00% # Request fanout histogram
system.tol2bus.snoop_fanout::7                      0      0.00%    100.00% # Request fanout histogram
system.tol2bus.snoop_fanout::8                      0      0.00%    100.00% # Request fanout histogram
system.tol2bus.snoop_fanout::overflows              0      0.00%    100.00% # Request fanout histogram
system.tol2bus.snoop_fanout::min_value              0                       # Request fanout histogram
system.tol2bus.snoop_fanout::max_value              1                       # Request fanout histogram
system.tol2bus.snoop_fanout::total             787220                       # Request fanout histogram
system.tol2bus.reqLayer0.occupancy         1107610000                       # Layer occupancy (ticks)
system.tol2bus.reqLayer0.utilization              7.9                       # Layer utilization (%)
system.tol2bus.respLayer5.occupancy         332152783                       # Layer occupancy (ticks)
system.tol2bus.respLayer5.utilization             2.4                       # Layer utilization (%)
system.tol2bus.respLayer4.occupancy          20794485                       # Layer occupancy (ticks)
system.tol2bus.respLayer4.utilization             0.1                       # Layer utilization (%)
system.tol2bus.respLayer1.occupancy         279032989                       # Layer occupancy (ticks)
system.tol2bus.respLayer1.utilization             2.0                       # Layer utilization (%)
system.tol2bus.respLayer0.occupancy         393238158                       # Layer occupancy (ticks)
system.tol2bus.respLayer0.utilization             2.8                       # Layer utilization (%)
system.tol2bus.power_state.pwrStateResidencyTicks::UNDEFINED  13981517000                       # Cumulative time (in ticks) in various power states

---------- End Simulation Statistics   ----------
