
---------- Begin Simulation Statistics ----------
final_tick                                20166832500                       # Number of ticks from beginning of simulation (restored from checkpoints and never reset)
host_inst_rate                                 227684                       # Simulator instruction rate (inst/s)
host_mem_usage                                4435680                       # Number of bytes of host memory used
host_op_rate                                   377919                       # Simulator op (including micro ops) rate (op/s)
host_seconds                                    54.33                       # Real time elapsed on the host
host_tick_rate                              371195198                       # Simulator tick rate (ticks/s)
sim_freq                                 1000000000000                       # Frequency of simulated ticks
sim_insts                                    12369942                       # Number of instructions simulated
sim_ops                                      20532147                       # Number of ops (including micro ops) simulated
sim_seconds                                  0.020167                       # Number of seconds simulated
sim_ticks                                 20166832500                       # Number of ticks simulated
system.cpu0.branchPred.BTBCorrect                   0                       # Number of correct BTB predictions (this stat may not work properly.
system.cpu0.branchPred.BTBHitPct                  nan                       # BTB Hit Percentage
system.cpu0.branchPred.BTBHits                      0                       # Number of BTB hits
system.cpu0.branchPred.BTBLookups                   0                       # Number of BTB lookups
system.cpu0.branchPred.RASInCorrect                 0                       # Number of incorrect RAS predictions.
system.cpu0.branchPred.condIncorrect               37                       # Number of conditional branches incorrect
system.cpu0.branchPred.condPredicted               81                       # Number of conditional branches predicted
system.cpu0.branchPred.indirectHits                 0                       # Number of indirect target hits.
system.cpu0.branchPred.indirectLookups             24                       # Number of indirect predictor lookups.
system.cpu0.branchPred.indirectMisses              24                       # Number of indirect misses.
system.cpu0.branchPred.lookups                     81                       # Number of BP lookups
system.cpu0.branchPred.usedRAS                      0                       # Number of times the RAS was used to get a target.
system.cpu0.branchPredindirectMispredicted           11                       # Number of mispredicted indirect branches.
system.cpu0.committedInsts                   10000000                       # Number of instructions committed
system.cpu0.committedOps                     16363461                       # Number of ops (including micro ops) committed
system.cpu0.cpi                              4.033366                       # CPI: cycles per instruction
system.cpu0.discardedOps                      5149863                       # Number of ops (including micro ops) which were discarded before commit
system.cpu0.dtb.rdAccesses                    1469161                       # TLB accesses on read requests
system.cpu0.dtb.rdMisses                         2714                       # TLB misses on read requests
system.cpu0.dtb.wrAccesses                     672208                       # TLB accesses on write requests
system.cpu0.dtb.wrMisses                           88                       # TLB misses on write requests
system.cpu0.fetch2.amo_instructions                 0                       # Number of memory atomic instructions successfully decoded
system.cpu0.fetch2.fp_instructions                  0                       # Number of floating point instructions successfully decoded
system.cpu0.fetch2.int_instructions                 9                       # Number of integer instructions successfully decoded
system.cpu0.fetch2.load_instructions                0                       # Number of memory load instructions successfully decoded
system.cpu0.fetch2.store_instructions               0                       # Number of memory store instructions successfully decoded
system.cpu0.fetch2.vec_instructions                 0                       # Number of SIMD instructions successfully decoded
system.cpu0.idleCycles                        7615851                       # Total number of cycles that the object has spent stopped
system.cpu0.ipc                              0.247932                       # IPC: instructions per cycle
system.cpu0.itb.rdAccesses                          0                       # TLB accesses on read requests
system.cpu0.itb.rdMisses                            0                       # TLB misses on read requests
system.cpu0.itb.wrAccesses                    4763921                       # TLB accesses on write requests
system.cpu0.itb.wrMisses                          252                       # TLB misses on write requests
system.cpu0.numCycles                        40333665                       # number of cpu cycles simulated
system.cpu0.numFetchSuspends                        0                       # Number of times Execute suspended instruction fetching
system.cpu0.numWorkItemsCompleted                   0                       # number of work items this cpu completed
system.cpu0.numWorkItemsStarted                     0                       # number of work items this cpu started
system.cpu0.op_class_0::No_OpClass              12560      0.08%      0.08% # Class of committed instruction
system.cpu0.op_class_0::IntAlu               14085339     86.08%     86.15% # Class of committed instruction
system.cpu0.op_class_0::IntMult                  6224      0.04%     86.19% # Class of committed instruction
system.cpu0.op_class_0::IntDiv                   1592      0.01%     86.20% # Class of committed instruction
system.cpu0.op_class_0::FloatAdd               139604      0.85%     87.06% # Class of committed instruction
system.cpu0.op_class_0::FloatCmp                    0      0.00%     87.06% # Class of committed instruction
system.cpu0.op_class_0::FloatCvt                  144      0.00%     87.06% # Class of committed instruction
system.cpu0.op_class_0::FloatMult                   0      0.00%     87.06% # Class of committed instruction
system.cpu0.op_class_0::FloatMultAcc                0      0.00%     87.06% # Class of committed instruction
system.cpu0.op_class_0::FloatDiv                    0      0.00%     87.06% # Class of committed instruction
system.cpu0.op_class_0::FloatMisc                   0      0.00%     87.06% # Class of committed instruction
system.cpu0.op_class_0::FloatSqrt                   0      0.00%     87.06% # Class of committed instruction
system.cpu0.op_class_0::SimdAdd                  1170      0.01%     87.06% # Class of committed instruction
system.cpu0.op_class_0::SimdAddAcc                  0      0.00%     87.06% # Class of committed instruction
system.cpu0.op_class_0::SimdAlu                  1323      0.01%     87.07% # Class of committed instruction
system.cpu0.op_class_0::SimdCmp                     6      0.00%     87.07% # Class of committed instruction
system.cpu0.op_class_0::SimdCvt                  1838      0.01%     87.08% # Class of committed instruction
system.cpu0.op_class_0::SimdMisc                17658      0.11%     87.19% # Class of committed instruction
system.cpu0.op_class_0::SimdMult                    0      0.00%     87.19% # Class of committed instruction
system.cpu0.op_class_0::SimdMultAcc                 0      0.00%     87.19% # Class of committed instruction
system.cpu0.op_class_0::SimdShift                 408      0.00%     87.19% # Class of committed instruction
system.cpu0.op_class_0::SimdShiftAcc                0      0.00%     87.19% # Class of committed instruction
system.cpu0.op_class_0::SimdDiv                     0      0.00%     87.19% # Class of committed instruction
system.cpu0.op_class_0::SimdSqrt                    0      0.00%     87.19% # Class of committed instruction
system.cpu0.op_class_0::SimdFloatAdd            28658      0.18%     87.37% # Class of committed instruction
system.cpu0.op_class_0::SimdFloatAlu                0      0.00%     87.37% # Class of committed instruction
system.cpu0.op_class_0::SimdFloatCmp                0      0.00%     87.37% # Class of committed instruction
system.cpu0.op_class_0::SimdFloatCvt            34832      0.21%     87.58% # Class of committed instruction
system.cpu0.op_class_0::SimdFloatDiv               22      0.00%     87.58% # Class of committed instruction
system.cpu0.op_class_0::SimdFloatMisc               0      0.00%     87.58% # Class of committed instruction
system.cpu0.op_class_0::SimdFloatMult           49128      0.30%     87.88% # Class of committed instruction
system.cpu0.op_class_0::SimdFloatMultAcc            0      0.00%     87.88% # Class of committed instruction
system.cpu0.op_class_0::SimdFloatSqrt               0      0.00%     87.88% # Class of committed instruction
system.cpu0.op_class_0::SimdReduceAdd               0      0.00%     87.88% # Class of committed instruction
system.cpu0.op_class_0::SimdReduceAlu               0      0.00%     87.88% # Class of committed instruction
system.cpu0.op_class_0::SimdReduceCmp               0      0.00%     87.88% # Class of committed instruction
system.cpu0.op_class_0::SimdFloatReduceAdd            0      0.00%     87.88% # Class of committed instruction
system.cpu0.op_class_0::SimdFloatReduceCmp            0      0.00%     87.88% # Class of committed instruction
system.cpu0.op_class_0::SimdAes                     0      0.00%     87.88% # Class of committed instruction
system.cpu0.op_class_0::SimdAesMix                  0      0.00%     87.88% # Class of committed instruction
system.cpu0.op_class_0::SimdSha1Hash                0      0.00%     87.88% # Class of committed instruction
system.cpu0.op_class_0::SimdSha1Hash2               0      0.00%     87.88% # Class of committed instruction
system.cpu0.op_class_0::SimdSha256Hash              0      0.00%     87.88% # Class of committed instruction
system.cpu0.op_class_0::SimdSha256Hash2             0      0.00%     87.88% # Class of committed instruction
system.cpu0.op_class_0::SimdShaSigma2               0      0.00%     87.88% # Class of committed instruction
system.cpu0.op_class_0::SimdShaSigma3               0      0.00%     87.88% # Class of committed instruction
system.cpu0.op_class_0::SimdPredAlu                 0      0.00%     87.88% # Class of committed instruction
system.cpu0.op_class_0::MemRead               1263997      7.72%     95.61% # Class of committed instruction
system.cpu0.op_class_0::MemWrite               592755      3.62%     99.23% # Class of committed instruction
system.cpu0.op_class_0::FloatMemRead            80716      0.49%     99.72% # Class of committed instruction
system.cpu0.op_class_0::FloatMemWrite           45487      0.28%    100.00% # Class of committed instruction
system.cpu0.op_class_0::IprAccess                   0      0.00%    100.00% # Class of committed instruction
system.cpu0.op_class_0::InstPrefetch                0      0.00%    100.00% # Class of committed instruction
system.cpu0.op_class_0::total                16363461                       # Class of committed instruction
system.cpu0.tickCycles                       32717814                       # Number of cycles that the object actually ticked
system.cpu0.workload.numSyscalls                   37                       # Number of system calls
system.cpu1.branchPred.BTBCorrect                   0                       # Number of correct BTB predictions (this stat may not work properly.
system.cpu1.branchPred.BTBHitPct                  nan                       # BTB Hit Percentage
system.cpu1.branchPred.BTBHits                      0                       # Number of BTB hits
system.cpu1.branchPred.BTBLookups                   0                       # Number of BTB lookups
system.cpu1.branchPred.RASInCorrect                 0                       # Number of incorrect RAS predictions.
system.cpu1.branchPred.condIncorrect               30                       # Number of conditional branches incorrect
system.cpu1.branchPred.condPredicted               68                       # Number of conditional branches predicted
system.cpu1.branchPred.indirectHits                 0                       # Number of indirect target hits.
system.cpu1.branchPred.indirectLookups             21                       # Number of indirect predictor lookups.
system.cpu1.branchPred.indirectMisses              21                       # Number of indirect misses.
system.cpu1.branchPred.lookups                     68                       # Number of BP lookups
system.cpu1.branchPred.usedRAS                      0                       # Number of times the RAS was used to get a target.
system.cpu1.branchPredindirectMispredicted           12                       # Number of mispredicted indirect branches.
system.cpu1.committedInsts                    2369942                       # Number of instructions committed
system.cpu1.committedOps                      4168686                       # Number of ops (including micro ops) committed
system.cpu1.cpi                             17.018838                       # CPI: cycles per instruction
system.cpu1.discardedOps                      1240110                       # Number of ops (including micro ops) which were discarded before commit
system.cpu1.dtb.rdAccesses                     413387                       # TLB accesses on read requests
system.cpu1.dtb.rdMisses                         2019                       # TLB misses on read requests
system.cpu1.dtb.wrAccesses                    1766781                       # TLB accesses on write requests
system.cpu1.dtb.wrMisses                         6473                       # TLB misses on write requests
system.cpu1.fetch2.amo_instructions                 0                       # Number of memory atomic instructions successfully decoded
system.cpu1.fetch2.fp_instructions                  0                       # Number of floating point instructions successfully decoded
system.cpu1.fetch2.int_instructions                 8                       # Number of integer instructions successfully decoded
system.cpu1.fetch2.load_instructions                0                       # Number of memory load instructions successfully decoded
system.cpu1.fetch2.store_instructions               0                       # Number of memory store instructions successfully decoded
system.cpu1.fetch2.vec_instructions                 0                       # Number of SIMD instructions successfully decoded
system.cpu1.idleCycles                       33652625                       # Total number of cycles that the object has spent stopped
system.cpu1.ipc                              0.058758                       # IPC: instructions per cycle
system.cpu1.itb.rdAccesses                          0                       # TLB accesses on read requests
system.cpu1.itb.rdMisses                            0                       # TLB misses on read requests
system.cpu1.itb.wrAccesses                     828395                       # TLB accesses on write requests
system.cpu1.itb.wrMisses                          205                       # TLB misses on write requests
system.cpu1.numCycles                        40333659                       # number of cpu cycles simulated
system.cpu1.numFetchSuspends                        0                       # Number of times Execute suspended instruction fetching
system.cpu1.numWorkItemsCompleted                   0                       # number of work items this cpu completed
system.cpu1.numWorkItemsStarted                     0                       # number of work items this cpu started
system.cpu1.op_class_0::No_OpClass               2098      0.05%      0.05% # Class of committed instruction
system.cpu1.op_class_0::IntAlu                2194562     52.64%     52.69% # Class of committed instruction
system.cpu1.op_class_0::IntMult                   641      0.02%     52.71% # Class of committed instruction
system.cpu1.op_class_0::IntDiv                   1317      0.03%     52.74% # Class of committed instruction
system.cpu1.op_class_0::FloatAdd                  189      0.00%     52.75% # Class of committed instruction
system.cpu1.op_class_0::FloatCmp                    0      0.00%     52.75% # Class of committed instruction
system.cpu1.op_class_0::FloatCvt                   96      0.00%     52.75% # Class of committed instruction
system.cpu1.op_class_0::FloatMult                   0      0.00%     52.75% # Class of committed instruction
system.cpu1.op_class_0::FloatMultAcc                0      0.00%     52.75% # Class of committed instruction
system.cpu1.op_class_0::FloatDiv                    0      0.00%     52.75% # Class of committed instruction
system.cpu1.op_class_0::FloatMisc                   0      0.00%     52.75% # Class of committed instruction
system.cpu1.op_class_0::FloatSqrt                   0      0.00%     52.75% # Class of committed instruction
system.cpu1.op_class_0::SimdAdd                   916      0.02%     52.77% # Class of committed instruction
system.cpu1.op_class_0::SimdAddAcc                  0      0.00%     52.77% # Class of committed instruction
system.cpu1.op_class_0::SimdAlu                   943      0.02%     52.79% # Class of committed instruction
system.cpu1.op_class_0::SimdCmp                     0      0.00%     52.79% # Class of committed instruction
system.cpu1.op_class_0::SimdCvt                  1230      0.03%     52.82% # Class of committed instruction
system.cpu1.op_class_0::SimdMisc                  843      0.02%     52.84% # Class of committed instruction
system.cpu1.op_class_0::SimdMult                    0      0.00%     52.84% # Class of committed instruction
system.cpu1.op_class_0::SimdMultAcc                 0      0.00%     52.84% # Class of committed instruction
system.cpu1.op_class_0::SimdShift                 388      0.01%     52.85% # Class of committed instruction
system.cpu1.op_class_0::SimdShiftAcc                0      0.00%     52.85% # Class of committed instruction
system.cpu1.op_class_0::SimdDiv                     0      0.00%     52.85% # Class of committed instruction
system.cpu1.op_class_0::SimdSqrt                    0      0.00%     52.85% # Class of committed instruction
system.cpu1.op_class_0::SimdFloatAdd                0      0.00%     52.85% # Class of committed instruction
system.cpu1.op_class_0::SimdFloatAlu                0      0.00%     52.85% # Class of committed instruction
system.cpu1.op_class_0::SimdFloatCmp                0      0.00%     52.85% # Class of committed instruction
system.cpu1.op_class_0::SimdFloatCvt                0      0.00%     52.85% # Class of committed instruction
system.cpu1.op_class_0::SimdFloatDiv                0      0.00%     52.85% # Class of committed instruction
system.cpu1.op_class_0::SimdFloatMisc               0      0.00%     52.85% # Class of committed instruction
system.cpu1.op_class_0::SimdFloatMult               0      0.00%     52.85% # Class of committed instruction
system.cpu1.op_class_0::SimdFloatMultAcc            0      0.00%     52.85% # Class of committed instruction
system.cpu1.op_class_0::SimdFloatSqrt               0      0.00%     52.85% # Class of committed instruction
system.cpu1.op_class_0::SimdReduceAdd               0      0.00%     52.85% # Class of committed instruction
system.cpu1.op_class_0::SimdReduceAlu               0      0.00%     52.85% # Class of committed instruction
system.cpu1.op_class_0::SimdReduceCmp               0      0.00%     52.85% # Class of committed instruction
system.cpu1.op_class_0::SimdFloatReduceAdd            0      0.00%     52.85% # Class of committed instruction
system.cpu1.op_class_0::SimdFloatReduceCmp            0      0.00%     52.85% # Class of committed instruction
system.cpu1.op_class_0::SimdAes                     0      0.00%     52.85% # Class of committed instruction
system.cpu1.op_class_0::SimdAesMix                  0      0.00%     52.85% # Class of committed instruction
system.cpu1.op_class_0::SimdSha1Hash                0      0.00%     52.85% # Class of committed instruction
system.cpu1.op_class_0::SimdSha1Hash2               0      0.00%     52.85% # Class of committed instruction
system.cpu1.op_class_0::SimdSha256Hash              0      0.00%     52.85% # Class of committed instruction
system.cpu1.op_class_0::SimdSha256Hash2             0      0.00%     52.85% # Class of committed instruction
system.cpu1.op_class_0::SimdShaSigma2               0      0.00%     52.85% # Class of committed instruction
system.cpu1.op_class_0::SimdShaSigma3               0      0.00%     52.85% # Class of committed instruction
system.cpu1.op_class_0::SimdPredAlu                 0      0.00%     52.85% # Class of committed instruction
system.cpu1.op_class_0::MemRead                199681      4.79%     57.64% # Class of committed instruction
system.cpu1.op_class_0::MemWrite               133412      3.20%     60.84% # Class of committed instruction
system.cpu1.op_class_0::FloatMemRead             1610      0.04%     60.88% # Class of committed instruction
system.cpu1.op_class_0::FloatMemWrite         1630760     39.12%    100.00% # Class of committed instruction
system.cpu1.op_class_0::IprAccess                   0      0.00%    100.00% # Class of committed instruction
system.cpu1.op_class_0::InstPrefetch                0      0.00%    100.00% # Class of committed instruction
system.cpu1.op_class_0::total                 4168686                       # Class of committed instruction
system.cpu1.tickCycles                        6681034                       # Number of cycles that the object actually ticked
system.cpu1.workload.numSyscalls                   30                       # Number of system calls
system.membus.snoop_filter.hit_multi_requests            0                       # Number of requests hitting in the snoop filter with multiple (>1) holders of the requested data.
system.membus.snoop_filter.hit_multi_snoops            0                       # Number of snoops hitting in the snoop filter with multiple (>1) holders of the requested data.
system.membus.snoop_filter.hit_single_requests       224934                       # Number of requests hitting in the snoop filter with a single holder of the requested data.
system.membus.snoop_filter.hit_single_snoops            0                       # Number of snoops hitting in the snoop filter with a single holder of the requested data.
system.membus.snoop_filter.tot_requests        450909                       # Total number of requests made to the snoop filter.
system.membus.snoop_filter.tot_snoops               0                       # Total number of snoops made to the snoop filter.
system.tol2bus.snoop_filter.hit_multi_requests            0                       # Number of requests hitting in the snoop filter with multiple (>1) holders of the requested data.
system.tol2bus.snoop_filter.hit_multi_snoops            0                       # Number of snoops hitting in the snoop filter with multiple (>1) holders of the requested data.
system.tol2bus.snoop_filter.hit_single_requests       587426                       # Number of requests hitting in the snoop filter with a single holder of the requested data.
system.tol2bus.snoop_filter.hit_single_snoops          892                       # Number of snoops hitting in the snoop filter with a single holder of the requested data.
system.tol2bus.snoop_filter.tot_requests      1174917                       # Total number of requests made to the snoop filter.
system.tol2bus.snoop_filter.tot_snoops            892                       # Total number of snoops made to the snoop filter.
system.membus.trans_dist::ReadResp              15094                       # Transaction distribution
system.membus.trans_dist::WritebackDirty       211914                       # Transaction distribution
system.membus.trans_dist::CleanEvict            13020                       # Transaction distribution
system.membus.trans_dist::ReadExReq            210881                       # Transaction distribution
system.membus.trans_dist::ReadExResp           210881                       # Transaction distribution
system.membus.trans_dist::ReadSharedReq         15094                       # Transaction distribution
system.membus.pkt_count_system.l2.mem_side::system.mem_ctrls.port       676884                       # Packet count per connected master and slave (bytes)
system.membus.pkt_count_system.l2.mem_side::total       676884                       # Packet count per connected master and slave (bytes)
system.membus.pkt_count::total                 676884                       # Packet count per connected master and slave (bytes)
system.membus.pkt_size_system.l2.mem_side::system.mem_ctrls.port     28024896                       # Cumulative packet size per connected master and slave (bytes)
system.membus.pkt_size_system.l2.mem_side::total     28024896                       # Cumulative packet size per connected master and slave (bytes)
system.membus.pkt_size::total                28024896                       # Cumulative packet size per connected master and slave (bytes)
system.membus.snoops                                0                       # Total snoops (count)
system.membus.snoopTraffic                          0                       # Total snoop traffic (bytes)
system.membus.snoop_fanout::samples            225975                       # Request fanout histogram
system.membus.snoop_fanout::mean                    0                       # Request fanout histogram
system.membus.snoop_fanout::stdev                   0                       # Request fanout histogram
system.membus.snoop_fanout::underflows              0      0.00%      0.00% # Request fanout histogram
system.membus.snoop_fanout::0                  225975    100.00%    100.00% # Request fanout histogram
system.membus.snoop_fanout::1                       0      0.00%    100.00% # Request fanout histogram
system.membus.snoop_fanout::overflows               0      0.00%    100.00% # Request fanout histogram
system.membus.snoop_fanout::min_value               0                       # Request fanout histogram
system.membus.snoop_fanout::max_value               0                       # Request fanout histogram
system.membus.snoop_fanout::total              225975                       # Request fanout histogram
system.membus.reqLayer4.occupancy          1402172000                       # Layer occupancy (ticks)
system.membus.reqLayer4.utilization               7.0                       # Layer utilization (%)
system.membus.respLayer1.occupancy         1194919500                       # Layer occupancy (ticks)
system.membus.respLayer1.utilization              5.9                       # Layer utilization (%)
system.membus.power_state.pwrStateResidencyTicks::UNDEFINED  20166832500                       # Cumulative time (in ticks) in various power states
system.voltage_domain.voltage                       1                       # Voltage in Volts
system.clk_domain.clock                          1000                       # Clock period in ticks
system.cpu0.icache.demand_hits::.cpu0.inst      4693440                       # number of demand (read+write) hits
system.cpu0.icache.demand_hits::total         4693440                       # number of demand (read+write) hits
system.cpu0.icache.overall_hits::.cpu0.inst      4693440                       # number of overall hits
system.cpu0.icache.overall_hits::total        4693440                       # number of overall hits
system.cpu0.icache.demand_misses::.cpu0.inst        70417                       # number of demand (read+write) misses
system.cpu0.icache.demand_misses::total         70417                       # number of demand (read+write) misses
system.cpu0.icache.overall_misses::.cpu0.inst        70417                       # number of overall misses
system.cpu0.icache.overall_misses::total        70417                       # number of overall misses
system.cpu0.icache.demand_miss_latency::.cpu0.inst   1177148000                       # number of demand (read+write) miss cycles
system.cpu0.icache.demand_miss_latency::total   1177148000                       # number of demand (read+write) miss cycles
system.cpu0.icache.overall_miss_latency::.cpu0.inst   1177148000                       # number of overall miss cycles
system.cpu0.icache.overall_miss_latency::total   1177148000                       # number of overall miss cycles
system.cpu0.icache.demand_accesses::.cpu0.inst      4763857                       # number of demand (read+write) accesses
system.cpu0.icache.demand_accesses::total      4763857                       # number of demand (read+write) accesses
system.cpu0.icache.overall_accesses::.cpu0.inst      4763857                       # number of overall (read+write) accesses
system.cpu0.icache.overall_accesses::total      4763857                       # number of overall (read+write) accesses
system.cpu0.icache.demand_miss_rate::.cpu0.inst     0.014782                       # miss rate for demand accesses
system.cpu0.icache.demand_miss_rate::total     0.014782                       # miss rate for demand accesses
system.cpu0.icache.overall_miss_rate::.cpu0.inst     0.014782                       # miss rate for overall accesses
system.cpu0.icache.overall_miss_rate::total     0.014782                       # miss rate for overall accesses
system.cpu0.icache.demand_avg_miss_latency::.cpu0.inst 16716.815542                       # average overall miss latency
system.cpu0.icache.demand_avg_miss_latency::total 16716.815542                       # average overall miss latency
system.cpu0.icache.overall_avg_miss_latency::.cpu0.inst 16716.815542                       # average overall miss latency
system.cpu0.icache.overall_avg_miss_latency::total 16716.815542                       # average overall miss latency
system.cpu0.icache.blocked_cycles::no_mshrs            0                       # number of cycles access was blocked
system.cpu0.icache.blocked_cycles::no_targets            0                       # number of cycles access was blocked
system.cpu0.icache.blocked::no_mshrs                0                       # number of cycles access was blocked
system.cpu0.icache.blocked::no_targets              0                       # number of cycles access was blocked
system.cpu0.icache.avg_blocked_cycles::no_mshrs          nan                       # average number of cycles each access was blocked
system.cpu0.icache.avg_blocked_cycles::no_targets          nan                       # average number of cycles each access was blocked
system.cpu0.icache.writebacks::.writebacks        70401                       # number of writebacks
system.cpu0.icache.writebacks::total            70401                       # number of writebacks
system.cpu0.icache.demand_mshr_misses::.cpu0.inst        70417                       # number of demand (read+write) MSHR misses
system.cpu0.icache.demand_mshr_misses::total        70417                       # number of demand (read+write) MSHR misses
system.cpu0.icache.overall_mshr_misses::.cpu0.inst        70417                       # number of overall MSHR misses
system.cpu0.icache.overall_mshr_misses::total        70417                       # number of overall MSHR misses
system.cpu0.icache.demand_mshr_miss_latency::.cpu0.inst   1106731000                       # number of demand (read+write) MSHR miss cycles
system.cpu0.icache.demand_mshr_miss_latency::total   1106731000                       # number of demand (read+write) MSHR miss cycles
system.cpu0.icache.overall_mshr_miss_latency::.cpu0.inst   1106731000                       # number of overall MSHR miss cycles
system.cpu0.icache.overall_mshr_miss_latency::total   1106731000                       # number of overall MSHR miss cycles
system.cpu0.icache.demand_mshr_miss_rate::.cpu0.inst     0.014782                       # mshr miss rate for demand accesses
system.cpu0.icache.demand_mshr_miss_rate::total     0.014782                       # mshr miss rate for demand accesses
system.cpu0.icache.overall_mshr_miss_rate::.cpu0.inst     0.014782                       # mshr miss rate for overall accesses
system.cpu0.icache.overall_mshr_miss_rate::total     0.014782                       # mshr miss rate for overall accesses
system.cpu0.icache.demand_avg_mshr_miss_latency::.cpu0.inst 15716.815542                       # average overall mshr miss latency
system.cpu0.icache.demand_avg_mshr_miss_latency::total 15716.815542                       # average overall mshr miss latency
system.cpu0.icache.overall_avg_mshr_miss_latency::.cpu0.inst 15716.815542                       # average overall mshr miss latency
system.cpu0.icache.overall_avg_mshr_miss_latency::total 15716.815542                       # average overall mshr miss latency
system.cpu0.icache.replacements                 70401                       # number of replacements
system.cpu0.icache.ReadReq_hits::.cpu0.inst      4693440                       # number of ReadReq hits
system.cpu0.icache.ReadReq_hits::total        4693440                       # number of ReadReq hits
system.cpu0.icache.ReadReq_misses::.cpu0.inst        70417                       # number of ReadReq misses
system.cpu0.icache.ReadReq_misses::total        70417                       # number of ReadReq misses
system.cpu0.icache.ReadReq_miss_latency::.cpu0.inst   1177148000                       # number of ReadReq miss cycles
system.cpu0.icache.ReadReq_miss_latency::total   1177148000                       # number of ReadReq miss cycles
system.cpu0.icache.ReadReq_accesses::.cpu0.inst      4763857                       # number of ReadReq accesses(hits+misses)
system.cpu0.icache.ReadReq_accesses::total      4763857                       # number of ReadReq accesses(hits+misses)
system.cpu0.icache.ReadReq_miss_rate::.cpu0.inst     0.014782                       # miss rate for ReadReq accesses
system.cpu0.icache.ReadReq_miss_rate::total     0.014782                       # miss rate for ReadReq accesses
system.cpu0.icache.ReadReq_avg_miss_latency::.cpu0.inst 16716.815542                       # average ReadReq miss latency
system.cpu0.icache.ReadReq_avg_miss_latency::total 16716.815542                       # average ReadReq miss latency
system.cpu0.icache.ReadReq_mshr_misses::.cpu0.inst        70417                       # number of ReadReq MSHR misses
system.cpu0.icache.ReadReq_mshr_misses::total        70417                       # number of ReadReq MSHR misses
system.cpu0.icache.ReadReq_mshr_miss_latency::.cpu0.inst   1106731000                       # number of ReadReq MSHR miss cycles
system.cpu0.icache.ReadReq_mshr_miss_latency::total   1106731000                       # number of ReadReq MSHR miss cycles
system.cpu0.icache.ReadReq_mshr_miss_rate::.cpu0.inst     0.014782                       # mshr miss rate for ReadReq accesses
system.cpu0.icache.ReadReq_mshr_miss_rate::total     0.014782                       # mshr miss rate for ReadReq accesses
system.cpu0.icache.ReadReq_avg_mshr_miss_latency::.cpu0.inst 15716.815542                       # average ReadReq mshr miss latency
system.cpu0.icache.ReadReq_avg_mshr_miss_latency::total 15716.815542                       # average ReadReq mshr miss latency
system.cpu0.icache.power_state.pwrStateResidencyTicks::UNDEFINED  20166832500                       # Cumulative time (in ticks) in various power states
system.cpu0.icache.tags.tagsinuse           15.999314                       # Cycle average of tags in use
system.cpu0.icache.tags.total_refs            4763857                       # Total number of references to valid blocks.
system.cpu0.icache.tags.sampled_refs            70417                       # Sample count of references to valid blocks.
system.cpu0.icache.tags.avg_refs            67.652087                       # Average number of references to valid blocks.
system.cpu0.icache.tags.warmup_cycle            87500                       # Cycle when the warmup percentage was hit.
system.cpu0.icache.tags.occ_blocks::.cpu0.inst    15.999314                       # Average occupied blocks per requestor
system.cpu0.icache.tags.occ_percent::.cpu0.inst     0.999957                       # Average percentage of cache occupancy
system.cpu0.icache.tags.occ_percent::total     0.999957                       # Average percentage of cache occupancy
system.cpu0.icache.tags.occ_task_id_blocks::1024           16                       # Occupied blocks per task id
system.cpu0.icache.tags.age_task_id_blocks_1024::1           16                       # Occupied blocks per task id
system.cpu0.icache.tags.occ_task_id_percent::1024            1                       # Percentage of cache occupancy per task id
system.cpu0.icache.tags.tag_accesses         38181273                       # Number of tag accesses
system.cpu0.icache.tags.data_accesses        38181273                       # Number of data accesses
system.cpu0.icache.tags.power_state.pwrStateResidencyTicks::UNDEFINED  20166832500                       # Cumulative time (in ticks) in various power states
system.cpu0.dtb.walker.power_state.pwrStateResidencyTicks::UNDEFINED  20166832500                       # Cumulative time (in ticks) in various power states
system.cpu0.interrupts.clk_domain.clock          8000                       # Clock period in ticks
system.cpu0.itb_walker_cache.blocked_cycles::no_mshrs            0                       # number of cycles access was blocked
system.cpu0.itb_walker_cache.blocked_cycles::no_targets            0                       # number of cycles access was blocked
system.cpu0.itb_walker_cache.blocked::no_mshrs            0                       # number of cycles access was blocked
system.cpu0.itb_walker_cache.blocked::no_targets            0                       # number of cycles access was blocked
system.cpu0.itb_walker_cache.avg_blocked_cycles::no_mshrs          nan                       # average number of cycles each access was blocked
system.cpu0.itb_walker_cache.avg_blocked_cycles::no_targets          nan                       # average number of cycles each access was blocked
system.cpu0.itb_walker_cache.replacements            0                       # number of replacements
system.cpu0.itb_walker_cache.power_state.pwrStateResidencyTicks::UNDEFINED  20166832500                       # Cumulative time (in ticks) in various power states
system.cpu0.itb_walker_cache.tags.tagsinuse            0                       # Cycle average of tags in use
system.cpu0.itb_walker_cache.tags.total_refs            0                       # Total number of references to valid blocks.
system.cpu0.itb_walker_cache.tags.sampled_refs            0                       # Sample count of references to valid blocks.
system.cpu0.itb_walker_cache.tags.avg_refs          nan                       # Average number of references to valid blocks.
system.cpu0.itb_walker_cache.tags.warmup_cycle            0                       # Cycle when the warmup percentage was hit.
system.cpu0.itb_walker_cache.tags.tag_accesses            0                       # Number of tag accesses
system.cpu0.itb_walker_cache.tags.data_accesses            0                       # Number of data accesses
system.cpu0.itb_walker_cache.tags.power_state.pwrStateResidencyTicks::UNDEFINED  20166832500                       # Cumulative time (in ticks) in various power states
system.cpu0.dtb_walker_cache.blocked_cycles::no_mshrs            0                       # number of cycles access was blocked
system.cpu0.dtb_walker_cache.blocked_cycles::no_targets            0                       # number of cycles access was blocked
system.cpu0.dtb_walker_cache.blocked::no_mshrs            0                       # number of cycles access was blocked
system.cpu0.dtb_walker_cache.blocked::no_targets            0                       # number of cycles access was blocked
system.cpu0.dtb_walker_cache.avg_blocked_cycles::no_mshrs          nan                       # average number of cycles each access was blocked
system.cpu0.dtb_walker_cache.avg_blocked_cycles::no_targets          nan                       # average number of cycles each access was blocked
system.cpu0.dtb_walker_cache.replacements            0                       # number of replacements
system.cpu0.dtb_walker_cache.power_state.pwrStateResidencyTicks::UNDEFINED  20166832500                       # Cumulative time (in ticks) in various power states
system.cpu0.dtb_walker_cache.tags.tagsinuse            0                       # Cycle average of tags in use
system.cpu0.dtb_walker_cache.tags.total_refs            0                       # Total number of references to valid blocks.
system.cpu0.dtb_walker_cache.tags.sampled_refs            0                       # Sample count of references to valid blocks.
system.cpu0.dtb_walker_cache.tags.avg_refs          nan                       # Average number of references to valid blocks.
system.cpu0.dtb_walker_cache.tags.warmup_cycle            0                       # Cycle when the warmup percentage was hit.
system.cpu0.dtb_walker_cache.tags.tag_accesses            0                       # Number of tag accesses
system.cpu0.dtb_walker_cache.tags.data_accesses            0                       # Number of data accesses
system.cpu0.dtb_walker_cache.tags.power_state.pwrStateResidencyTicks::UNDEFINED  20166832500                       # Cumulative time (in ticks) in various power states
system.cpu0.dcache.demand_hits::.cpu0.data      1810488                       # number of demand (read+write) hits
system.cpu0.dcache.demand_hits::total         1810488                       # number of demand (read+write) hits
system.cpu0.dcache.overall_hits::.cpu0.data      1810545                       # number of overall hits
system.cpu0.dcache.overall_hits::total        1810545                       # number of overall hits
system.cpu0.dcache.demand_misses::.cpu0.data       290347                       # number of demand (read+write) misses
system.cpu0.dcache.demand_misses::total        290347                       # number of demand (read+write) misses
system.cpu0.dcache.overall_misses::.cpu0.data       290404                       # number of overall misses
system.cpu0.dcache.overall_misses::total       290404                       # number of overall misses
system.cpu0.dcache.demand_miss_latency::.cpu0.data   4867046000                       # number of demand (read+write) miss cycles
system.cpu0.dcache.demand_miss_latency::total   4867046000                       # number of demand (read+write) miss cycles
system.cpu0.dcache.overall_miss_latency::.cpu0.data   4867046000                       # number of overall miss cycles
system.cpu0.dcache.overall_miss_latency::total   4867046000                       # number of overall miss cycles
system.cpu0.dcache.demand_accesses::.cpu0.data      2100835                       # number of demand (read+write) accesses
system.cpu0.dcache.demand_accesses::total      2100835                       # number of demand (read+write) accesses
system.cpu0.dcache.overall_accesses::.cpu0.data      2100949                       # number of overall (read+write) accesses
system.cpu0.dcache.overall_accesses::total      2100949                       # number of overall (read+write) accesses
system.cpu0.dcache.demand_miss_rate::.cpu0.data     0.138206                       # miss rate for demand accesses
system.cpu0.dcache.demand_miss_rate::total     0.138206                       # miss rate for demand accesses
system.cpu0.dcache.overall_miss_rate::.cpu0.data     0.138225                       # miss rate for overall accesses
system.cpu0.dcache.overall_miss_rate::total     0.138225                       # miss rate for overall accesses
system.cpu0.dcache.demand_avg_miss_latency::.cpu0.data 16762.859613                       # average overall miss latency
system.cpu0.dcache.demand_avg_miss_latency::total 16762.859613                       # average overall miss latency
system.cpu0.dcache.overall_avg_miss_latency::.cpu0.data 16759.569427                       # average overall miss latency
system.cpu0.dcache.overall_avg_miss_latency::total 16759.569427                       # average overall miss latency
system.cpu0.dcache.blocked_cycles::no_mshrs            0                       # number of cycles access was blocked
system.cpu0.dcache.blocked_cycles::no_targets            0                       # number of cycles access was blocked
system.cpu0.dcache.blocked::no_mshrs                0                       # number of cycles access was blocked
system.cpu0.dcache.blocked::no_targets              0                       # number of cycles access was blocked
system.cpu0.dcache.avg_blocked_cycles::no_mshrs          nan                       # average number of cycles each access was blocked
system.cpu0.dcache.avg_blocked_cycles::no_targets          nan                       # average number of cycles each access was blocked
system.cpu0.dcache.writebacks::.writebacks       268616                       # number of writebacks
system.cpu0.dcache.writebacks::total           268616                       # number of writebacks
system.cpu0.dcache.demand_mshr_hits::.cpu0.data        10034                       # number of demand (read+write) MSHR hits
system.cpu0.dcache.demand_mshr_hits::total        10034                       # number of demand (read+write) MSHR hits
system.cpu0.dcache.overall_mshr_hits::.cpu0.data        10034                       # number of overall MSHR hits
system.cpu0.dcache.overall_mshr_hits::total        10034                       # number of overall MSHR hits
system.cpu0.dcache.demand_mshr_misses::.cpu0.data       280313                       # number of demand (read+write) MSHR misses
system.cpu0.dcache.demand_mshr_misses::total       280313                       # number of demand (read+write) MSHR misses
system.cpu0.dcache.overall_mshr_misses::.cpu0.data       280370                       # number of overall MSHR misses
system.cpu0.dcache.overall_mshr_misses::total       280370                       # number of overall MSHR misses
system.cpu0.dcache.demand_mshr_miss_latency::.cpu0.data   4214739500                       # number of demand (read+write) MSHR miss cycles
system.cpu0.dcache.demand_mshr_miss_latency::total   4214739500                       # number of demand (read+write) MSHR miss cycles
system.cpu0.dcache.overall_mshr_miss_latency::.cpu0.data   4215499500                       # number of overall MSHR miss cycles
system.cpu0.dcache.overall_mshr_miss_latency::total   4215499500                       # number of overall MSHR miss cycles
system.cpu0.dcache.demand_mshr_miss_rate::.cpu0.data     0.133429                       # mshr miss rate for demand accesses
system.cpu0.dcache.demand_mshr_miss_rate::total     0.133429                       # mshr miss rate for demand accesses
system.cpu0.dcache.overall_mshr_miss_rate::.cpu0.data     0.133449                       # mshr miss rate for overall accesses
system.cpu0.dcache.overall_mshr_miss_rate::total     0.133449                       # mshr miss rate for overall accesses
system.cpu0.dcache.demand_avg_mshr_miss_latency::.cpu0.data 15035.833158                       # average overall mshr miss latency
system.cpu0.dcache.demand_avg_mshr_miss_latency::total 15035.833158                       # average overall mshr miss latency
system.cpu0.dcache.overall_avg_mshr_miss_latency::.cpu0.data 15035.487035                       # average overall mshr miss latency
system.cpu0.dcache.overall_avg_mshr_miss_latency::total 15035.487035                       # average overall mshr miss latency
system.cpu0.dcache.replacements                280354                       # number of replacements
system.cpu0.dcache.ReadReq_hits::.cpu0.data      1192734                       # number of ReadReq hits
system.cpu0.dcache.ReadReq_hits::total        1192734                       # number of ReadReq hits
system.cpu0.dcache.ReadReq_misses::.cpu0.data       269889                       # number of ReadReq misses
system.cpu0.dcache.ReadReq_misses::total       269889                       # number of ReadReq misses
system.cpu0.dcache.ReadReq_miss_latency::.cpu0.data   4088536000                       # number of ReadReq miss cycles
system.cpu0.dcache.ReadReq_miss_latency::total   4088536000                       # number of ReadReq miss cycles
system.cpu0.dcache.ReadReq_accesses::.cpu0.data      1462623                       # number of ReadReq accesses(hits+misses)
system.cpu0.dcache.ReadReq_accesses::total      1462623                       # number of ReadReq accesses(hits+misses)
system.cpu0.dcache.ReadReq_miss_rate::.cpu0.data     0.184524                       # miss rate for ReadReq accesses
system.cpu0.dcache.ReadReq_miss_rate::total     0.184524                       # miss rate for ReadReq accesses
system.cpu0.dcache.ReadReq_avg_miss_latency::.cpu0.data 15148.953829                       # average ReadReq miss latency
system.cpu0.dcache.ReadReq_avg_miss_latency::total 15148.953829                       # average ReadReq miss latency
system.cpu0.dcache.ReadReq_mshr_hits::.cpu0.data         1460                       # number of ReadReq MSHR hits
system.cpu0.dcache.ReadReq_mshr_hits::total         1460                       # number of ReadReq MSHR hits
system.cpu0.dcache.ReadReq_mshr_misses::.cpu0.data       268429                       # number of ReadReq MSHR misses
system.cpu0.dcache.ReadReq_mshr_misses::total       268429                       # number of ReadReq MSHR misses
system.cpu0.dcache.ReadReq_mshr_miss_latency::.cpu0.data   3774160500                       # number of ReadReq MSHR miss cycles
system.cpu0.dcache.ReadReq_mshr_miss_latency::total   3774160500                       # number of ReadReq MSHR miss cycles
system.cpu0.dcache.ReadReq_mshr_miss_rate::.cpu0.data     0.183526                       # mshr miss rate for ReadReq accesses
system.cpu0.dcache.ReadReq_mshr_miss_rate::total     0.183526                       # mshr miss rate for ReadReq accesses
system.cpu0.dcache.ReadReq_avg_mshr_miss_latency::.cpu0.data 14060.181650                       # average ReadReq mshr miss latency
system.cpu0.dcache.ReadReq_avg_mshr_miss_latency::total 14060.181650                       # average ReadReq mshr miss latency
system.cpu0.dcache.WriteReq_hits::.cpu0.data       617754                       # number of WriteReq hits
system.cpu0.dcache.WriteReq_hits::total        617754                       # number of WriteReq hits
system.cpu0.dcache.WriteReq_misses::.cpu0.data        20458                       # number of WriteReq misses
system.cpu0.dcache.WriteReq_misses::total        20458                       # number of WriteReq misses
system.cpu0.dcache.WriteReq_miss_latency::.cpu0.data    778510000                       # number of WriteReq miss cycles
system.cpu0.dcache.WriteReq_miss_latency::total    778510000                       # number of WriteReq miss cycles
system.cpu0.dcache.WriteReq_accesses::.cpu0.data       638212                       # number of WriteReq accesses(hits+misses)
system.cpu0.dcache.WriteReq_accesses::total       638212                       # number of WriteReq accesses(hits+misses)
system.cpu0.dcache.WriteReq_miss_rate::.cpu0.data     0.032055                       # miss rate for WriteReq accesses
system.cpu0.dcache.WriteReq_miss_rate::total     0.032055                       # miss rate for WriteReq accesses
system.cpu0.dcache.WriteReq_avg_miss_latency::.cpu0.data 38054.061981                       # average WriteReq miss latency
system.cpu0.dcache.WriteReq_avg_miss_latency::total 38054.061981                       # average WriteReq miss latency
system.cpu0.dcache.WriteReq_mshr_hits::.cpu0.data         8574                       # number of WriteReq MSHR hits
system.cpu0.dcache.WriteReq_mshr_hits::total         8574                       # number of WriteReq MSHR hits
system.cpu0.dcache.WriteReq_mshr_misses::.cpu0.data        11884                       # number of WriteReq MSHR misses
system.cpu0.dcache.WriteReq_mshr_misses::total        11884                       # number of WriteReq MSHR misses
system.cpu0.dcache.WriteReq_mshr_miss_latency::.cpu0.data    440579000                       # number of WriteReq MSHR miss cycles
system.cpu0.dcache.WriteReq_mshr_miss_latency::total    440579000                       # number of WriteReq MSHR miss cycles
system.cpu0.dcache.WriteReq_mshr_miss_rate::.cpu0.data     0.018621                       # mshr miss rate for WriteReq accesses
system.cpu0.dcache.WriteReq_mshr_miss_rate::total     0.018621                       # mshr miss rate for WriteReq accesses
system.cpu0.dcache.WriteReq_avg_mshr_miss_latency::.cpu0.data 37073.291821                       # average WriteReq mshr miss latency
system.cpu0.dcache.WriteReq_avg_mshr_miss_latency::total 37073.291821                       # average WriteReq mshr miss latency
system.cpu0.dcache.SoftPFReq_hits::.cpu0.data           57                       # number of SoftPFReq hits
system.cpu0.dcache.SoftPFReq_hits::total           57                       # number of SoftPFReq hits
system.cpu0.dcache.SoftPFReq_misses::.cpu0.data           57                       # number of SoftPFReq misses
system.cpu0.dcache.SoftPFReq_misses::total           57                       # number of SoftPFReq misses
system.cpu0.dcache.SoftPFReq_accesses::.cpu0.data          114                       # number of SoftPFReq accesses(hits+misses)
system.cpu0.dcache.SoftPFReq_accesses::total          114                       # number of SoftPFReq accesses(hits+misses)
system.cpu0.dcache.SoftPFReq_miss_rate::.cpu0.data     0.500000                       # miss rate for SoftPFReq accesses
system.cpu0.dcache.SoftPFReq_miss_rate::total     0.500000                       # miss rate for SoftPFReq accesses
system.cpu0.dcache.SoftPFReq_mshr_misses::.cpu0.data           57                       # number of SoftPFReq MSHR misses
system.cpu0.dcache.SoftPFReq_mshr_misses::total           57                       # number of SoftPFReq MSHR misses
system.cpu0.dcache.SoftPFReq_mshr_miss_latency::.cpu0.data       760000                       # number of SoftPFReq MSHR miss cycles
system.cpu0.dcache.SoftPFReq_mshr_miss_latency::total       760000                       # number of SoftPFReq MSHR miss cycles
system.cpu0.dcache.SoftPFReq_mshr_miss_rate::.cpu0.data     0.500000                       # mshr miss rate for SoftPFReq accesses
system.cpu0.dcache.SoftPFReq_mshr_miss_rate::total     0.500000                       # mshr miss rate for SoftPFReq accesses
system.cpu0.dcache.SoftPFReq_avg_mshr_miss_latency::.cpu0.data 13333.333333                       # average SoftPFReq mshr miss latency
system.cpu0.dcache.SoftPFReq_avg_mshr_miss_latency::total 13333.333333                       # average SoftPFReq mshr miss latency
system.cpu0.dcache.power_state.pwrStateResidencyTicks::UNDEFINED  20166832500                       # Cumulative time (in ticks) in various power states
system.cpu0.dcache.tags.tagsinuse           15.999355                       # Cycle average of tags in use
system.cpu0.dcache.tags.total_refs            2090915                       # Total number of references to valid blocks.
system.cpu0.dcache.tags.sampled_refs           280370                       # Sample count of references to valid blocks.
system.cpu0.dcache.tags.avg_refs             7.457699                       # Average number of references to valid blocks.
system.cpu0.dcache.tags.warmup_cycle           178500                       # Cycle when the warmup percentage was hit.
system.cpu0.dcache.tags.occ_blocks::.cpu0.data    15.999355                       # Average occupied blocks per requestor
system.cpu0.dcache.tags.occ_percent::.cpu0.data     0.999960                       # Average percentage of cache occupancy
system.cpu0.dcache.tags.occ_percent::total     0.999960                       # Average percentage of cache occupancy
system.cpu0.dcache.tags.occ_task_id_blocks::1024           16                       # Occupied blocks per task id
system.cpu0.dcache.tags.age_task_id_blocks_1024::0           16                       # Occupied blocks per task id
system.cpu0.dcache.tags.occ_task_id_percent::1024            1                       # Percentage of cache occupancy per task id
system.cpu0.dcache.tags.tag_accesses         17087962                       # Number of tag accesses
system.cpu0.dcache.tags.data_accesses        17087962                       # Number of data accesses
system.cpu0.dcache.tags.power_state.pwrStateResidencyTicks::UNDEFINED  20166832500                       # Cumulative time (in ticks) in various power states
system.cpu0.power_state.pwrStateResidencyTicks::ON  20166832500                       # Cumulative time (in ticks) in various power states
system.cpu0.itb.walker.power_state.pwrStateResidencyTicks::UNDEFINED  20166832500                       # Cumulative time (in ticks) in various power states
system.cpu1.icache.demand_hits::.cpu1.inst       819478                       # number of demand (read+write) hits
system.cpu1.icache.demand_hits::total          819478                       # number of demand (read+write) hits
system.cpu1.icache.overall_hits::.cpu1.inst       819478                       # number of overall hits
system.cpu1.icache.overall_hits::total         819478                       # number of overall hits
system.cpu1.icache.demand_misses::.cpu1.inst         8874                       # number of demand (read+write) misses
system.cpu1.icache.demand_misses::total          8874                       # number of demand (read+write) misses
system.cpu1.icache.overall_misses::.cpu1.inst         8874                       # number of overall misses
system.cpu1.icache.overall_misses::total         8874                       # number of overall misses
system.cpu1.icache.demand_miss_latency::.cpu1.inst    256977000                       # number of demand (read+write) miss cycles
system.cpu1.icache.demand_miss_latency::total    256977000                       # number of demand (read+write) miss cycles
system.cpu1.icache.overall_miss_latency::.cpu1.inst    256977000                       # number of overall miss cycles
system.cpu1.icache.overall_miss_latency::total    256977000                       # number of overall miss cycles
system.cpu1.icache.demand_accesses::.cpu1.inst       828352                       # number of demand (read+write) accesses
system.cpu1.icache.demand_accesses::total       828352                       # number of demand (read+write) accesses
system.cpu1.icache.overall_accesses::.cpu1.inst       828352                       # number of overall (read+write) accesses
system.cpu1.icache.overall_accesses::total       828352                       # number of overall (read+write) accesses
system.cpu1.icache.demand_miss_rate::.cpu1.inst     0.010713                       # miss rate for demand accesses
system.cpu1.icache.demand_miss_rate::total     0.010713                       # miss rate for demand accesses
system.cpu1.icache.overall_miss_rate::.cpu1.inst     0.010713                       # miss rate for overall accesses
system.cpu1.icache.overall_miss_rate::total     0.010713                       # miss rate for overall accesses
system.cpu1.icache.demand_avg_miss_latency::.cpu1.inst 28958.417850                       # average overall miss latency
system.cpu1.icache.demand_avg_miss_latency::total 28958.417850                       # average overall miss latency
system.cpu1.icache.overall_avg_miss_latency::.cpu1.inst 28958.417850                       # average overall miss latency
system.cpu1.icache.overall_avg_miss_latency::total 28958.417850                       # average overall miss latency
system.cpu1.icache.blocked_cycles::no_mshrs            0                       # number of cycles access was blocked
system.cpu1.icache.blocked_cycles::no_targets            0                       # number of cycles access was blocked
system.cpu1.icache.blocked::no_mshrs                0                       # number of cycles access was blocked
system.cpu1.icache.blocked::no_targets              0                       # number of cycles access was blocked
system.cpu1.icache.avg_blocked_cycles::no_mshrs          nan                       # average number of cycles each access was blocked
system.cpu1.icache.avg_blocked_cycles::no_targets          nan                       # average number of cycles each access was blocked
system.cpu1.icache.writebacks::.writebacks         8858                       # number of writebacks
system.cpu1.icache.writebacks::total             8858                       # number of writebacks
system.cpu1.icache.demand_mshr_misses::.cpu1.inst         8874                       # number of demand (read+write) MSHR misses
system.cpu1.icache.demand_mshr_misses::total         8874                       # number of demand (read+write) MSHR misses
system.cpu1.icache.overall_mshr_misses::.cpu1.inst         8874                       # number of overall MSHR misses
system.cpu1.icache.overall_mshr_misses::total         8874                       # number of overall MSHR misses
system.cpu1.icache.demand_mshr_miss_latency::.cpu1.inst    248103000                       # number of demand (read+write) MSHR miss cycles
system.cpu1.icache.demand_mshr_miss_latency::total    248103000                       # number of demand (read+write) MSHR miss cycles
system.cpu1.icache.overall_mshr_miss_latency::.cpu1.inst    248103000                       # number of overall MSHR miss cycles
system.cpu1.icache.overall_mshr_miss_latency::total    248103000                       # number of overall MSHR miss cycles
system.cpu1.icache.demand_mshr_miss_rate::.cpu1.inst     0.010713                       # mshr miss rate for demand accesses
system.cpu1.icache.demand_mshr_miss_rate::total     0.010713                       # mshr miss rate for demand accesses
system.cpu1.icache.overall_mshr_miss_rate::.cpu1.inst     0.010713                       # mshr miss rate for overall accesses
system.cpu1.icache.overall_mshr_miss_rate::total     0.010713                       # mshr miss rate for overall accesses
system.cpu1.icache.demand_avg_mshr_miss_latency::.cpu1.inst 27958.417850                       # average overall mshr miss latency
system.cpu1.icache.demand_avg_mshr_miss_latency::total 27958.417850                       # average overall mshr miss latency
system.cpu1.icache.overall_avg_mshr_miss_latency::.cpu1.inst 27958.417850                       # average overall mshr miss latency
system.cpu1.icache.overall_avg_mshr_miss_latency::total 27958.417850                       # average overall mshr miss latency
system.cpu1.icache.replacements                  8858                       # number of replacements
system.cpu1.icache.ReadReq_hits::.cpu1.inst       819478                       # number of ReadReq hits
system.cpu1.icache.ReadReq_hits::total         819478                       # number of ReadReq hits
system.cpu1.icache.ReadReq_misses::.cpu1.inst         8874                       # number of ReadReq misses
system.cpu1.icache.ReadReq_misses::total         8874                       # number of ReadReq misses
system.cpu1.icache.ReadReq_miss_latency::.cpu1.inst    256977000                       # number of ReadReq miss cycles
system.cpu1.icache.ReadReq_miss_latency::total    256977000                       # number of ReadReq miss cycles
system.cpu1.icache.ReadReq_accesses::.cpu1.inst       828352                       # number of ReadReq accesses(hits+misses)
system.cpu1.icache.ReadReq_accesses::total       828352                       # number of ReadReq accesses(hits+misses)
system.cpu1.icache.ReadReq_miss_rate::.cpu1.inst     0.010713                       # miss rate for ReadReq accesses
system.cpu1.icache.ReadReq_miss_rate::total     0.010713                       # miss rate for ReadReq accesses
system.cpu1.icache.ReadReq_avg_miss_latency::.cpu1.inst 28958.417850                       # average ReadReq miss latency
system.cpu1.icache.ReadReq_avg_miss_latency::total 28958.417850                       # average ReadReq miss latency
system.cpu1.icache.ReadReq_mshr_misses::.cpu1.inst         8874                       # number of ReadReq MSHR misses
system.cpu1.icache.ReadReq_mshr_misses::total         8874                       # number of ReadReq MSHR misses
system.cpu1.icache.ReadReq_mshr_miss_latency::.cpu1.inst    248103000                       # number of ReadReq MSHR miss cycles
system.cpu1.icache.ReadReq_mshr_miss_latency::total    248103000                       # number of ReadReq MSHR miss cycles
system.cpu1.icache.ReadReq_mshr_miss_rate::.cpu1.inst     0.010713                       # mshr miss rate for ReadReq accesses
system.cpu1.icache.ReadReq_mshr_miss_rate::total     0.010713                       # mshr miss rate for ReadReq accesses
system.cpu1.icache.ReadReq_avg_mshr_miss_latency::.cpu1.inst 27958.417850                       # average ReadReq mshr miss latency
system.cpu1.icache.ReadReq_avg_mshr_miss_latency::total 27958.417850                       # average ReadReq mshr miss latency
system.cpu1.icache.power_state.pwrStateResidencyTicks::UNDEFINED  20166832500                       # Cumulative time (in ticks) in various power states
system.cpu1.icache.tags.tagsinuse           15.999280                       # Cycle average of tags in use
system.cpu1.icache.tags.total_refs             828352                       # Total number of references to valid blocks.
system.cpu1.icache.tags.sampled_refs             8874                       # Sample count of references to valid blocks.
system.cpu1.icache.tags.avg_refs            93.345954                       # Average number of references to valid blocks.
system.cpu1.icache.tags.warmup_cycle            94500                       # Cycle when the warmup percentage was hit.
system.cpu1.icache.tags.occ_blocks::.cpu1.inst    15.999280                       # Average occupied blocks per requestor
system.cpu1.icache.tags.occ_percent::.cpu1.inst     0.999955                       # Average percentage of cache occupancy
system.cpu1.icache.tags.occ_percent::total     0.999955                       # Average percentage of cache occupancy
system.cpu1.icache.tags.occ_task_id_blocks::1024           16                       # Occupied blocks per task id
system.cpu1.icache.tags.age_task_id_blocks_1024::4           16                       # Occupied blocks per task id
system.cpu1.icache.tags.occ_task_id_percent::1024            1                       # Percentage of cache occupancy per task id
system.cpu1.icache.tags.tag_accesses          6635690                       # Number of tag accesses
system.cpu1.icache.tags.data_accesses         6635690                       # Number of data accesses
system.cpu1.icache.tags.power_state.pwrStateResidencyTicks::UNDEFINED  20166832500                       # Cumulative time (in ticks) in various power states
system.cpu1.dtb.walker.power_state.pwrStateResidencyTicks::UNDEFINED  20166832500                       # Cumulative time (in ticks) in various power states
system.cpu1.interrupts.clk_domain.clock          8000                       # Clock period in ticks
system.cpu1.itb_walker_cache.blocked_cycles::no_mshrs            0                       # number of cycles access was blocked
system.cpu1.itb_walker_cache.blocked_cycles::no_targets            0                       # number of cycles access was blocked
system.cpu1.itb_walker_cache.blocked::no_mshrs            0                       # number of cycles access was blocked
system.cpu1.itb_walker_cache.blocked::no_targets            0                       # number of cycles access was blocked
system.cpu1.itb_walker_cache.avg_blocked_cycles::no_mshrs          nan                       # average number of cycles each access was blocked
system.cpu1.itb_walker_cache.avg_blocked_cycles::no_targets          nan                       # average number of cycles each access was blocked
system.cpu1.itb_walker_cache.replacements            0                       # number of replacements
system.cpu1.itb_walker_cache.power_state.pwrStateResidencyTicks::UNDEFINED  20166832500                       # Cumulative time (in ticks) in various power states
system.cpu1.itb_walker_cache.tags.tagsinuse            0                       # Cycle average of tags in use
system.cpu1.itb_walker_cache.tags.total_refs            0                       # Total number of references to valid blocks.
system.cpu1.itb_walker_cache.tags.sampled_refs            0                       # Sample count of references to valid blocks.
system.cpu1.itb_walker_cache.tags.avg_refs          nan                       # Average number of references to valid blocks.
system.cpu1.itb_walker_cache.tags.warmup_cycle            0                       # Cycle when the warmup percentage was hit.
system.cpu1.itb_walker_cache.tags.tag_accesses            0                       # Number of tag accesses
system.cpu1.itb_walker_cache.tags.data_accesses            0                       # Number of data accesses
system.cpu1.itb_walker_cache.tags.power_state.pwrStateResidencyTicks::UNDEFINED  20166832500                       # Cumulative time (in ticks) in various power states
system.cpu1.dtb_walker_cache.blocked_cycles::no_mshrs            0                       # number of cycles access was blocked
system.cpu1.dtb_walker_cache.blocked_cycles::no_targets            0                       # number of cycles access was blocked
system.cpu1.dtb_walker_cache.blocked::no_mshrs            0                       # number of cycles access was blocked
system.cpu1.dtb_walker_cache.blocked::no_targets            0                       # number of cycles access was blocked
system.cpu1.dtb_walker_cache.avg_blocked_cycles::no_mshrs          nan                       # average number of cycles each access was blocked
system.cpu1.dtb_walker_cache.avg_blocked_cycles::no_targets          nan                       # average number of cycles each access was blocked
system.cpu1.dtb_walker_cache.replacements            0                       # number of replacements
system.cpu1.dtb_walker_cache.power_state.pwrStateResidencyTicks::UNDEFINED  20166832500                       # Cumulative time (in ticks) in various power states
system.cpu1.dtb_walker_cache.tags.tagsinuse            0                       # Cycle average of tags in use
system.cpu1.dtb_walker_cache.tags.total_refs            0                       # Total number of references to valid blocks.
system.cpu1.dtb_walker_cache.tags.sampled_refs            0                       # Sample count of references to valid blocks.
system.cpu1.dtb_walker_cache.tags.avg_refs          nan                       # Average number of references to valid blocks.
system.cpu1.dtb_walker_cache.tags.warmup_cycle            0                       # Cycle when the warmup percentage was hit.
system.cpu1.dtb_walker_cache.tags.tag_accesses            0                       # Number of tag accesses
system.cpu1.dtb_walker_cache.tags.data_accesses            0                       # Number of data accesses
system.cpu1.dtb_walker_cache.tags.power_state.pwrStateResidencyTicks::UNDEFINED  20166832500                       # Cumulative time (in ticks) in various power states
system.cpu1.dcache.demand_hits::.cpu1.data      1734649                       # number of demand (read+write) hits
system.cpu1.dcache.demand_hits::total         1734649                       # number of demand (read+write) hits
system.cpu1.dcache.overall_hits::.cpu1.data      1734649                       # number of overall hits
system.cpu1.dcache.overall_hits::total        1734649                       # number of overall hits
system.cpu1.dcache.demand_misses::.cpu1.data       437182                       # number of demand (read+write) misses
system.cpu1.dcache.demand_misses::total        437182                       # number of demand (read+write) misses
system.cpu1.dcache.overall_misses::.cpu1.data       437182                       # number of overall misses
system.cpu1.dcache.overall_misses::total       437182                       # number of overall misses
system.cpu1.dcache.demand_miss_latency::.cpu1.data  34763530500                       # number of demand (read+write) miss cycles
system.cpu1.dcache.demand_miss_latency::total  34763530500                       # number of demand (read+write) miss cycles
system.cpu1.dcache.overall_miss_latency::.cpu1.data  34763530500                       # number of overall miss cycles
system.cpu1.dcache.overall_miss_latency::total  34763530500                       # number of overall miss cycles
system.cpu1.dcache.demand_accesses::.cpu1.data      2171831                       # number of demand (read+write) accesses
system.cpu1.dcache.demand_accesses::total      2171831                       # number of demand (read+write) accesses
system.cpu1.dcache.overall_accesses::.cpu1.data      2171831                       # number of overall (read+write) accesses
system.cpu1.dcache.overall_accesses::total      2171831                       # number of overall (read+write) accesses
system.cpu1.dcache.demand_miss_rate::.cpu1.data     0.201297                       # miss rate for demand accesses
system.cpu1.dcache.demand_miss_rate::total     0.201297                       # miss rate for demand accesses
system.cpu1.dcache.overall_miss_rate::.cpu1.data     0.201297                       # miss rate for overall accesses
system.cpu1.dcache.overall_miss_rate::total     0.201297                       # miss rate for overall accesses
system.cpu1.dcache.demand_avg_miss_latency::.cpu1.data 79517.296000                       # average overall miss latency
system.cpu1.dcache.demand_avg_miss_latency::total 79517.296000                       # average overall miss latency
system.cpu1.dcache.overall_avg_miss_latency::.cpu1.data 79517.296000                       # average overall miss latency
system.cpu1.dcache.overall_avg_miss_latency::total 79517.296000                       # average overall miss latency
system.cpu1.dcache.blocked_cycles::no_mshrs            0                       # number of cycles access was blocked
system.cpu1.dcache.blocked_cycles::no_targets            0                       # number of cycles access was blocked
system.cpu1.dcache.blocked::no_mshrs                0                       # number of cycles access was blocked
system.cpu1.dcache.blocked::no_targets              0                       # number of cycles access was blocked
system.cpu1.dcache.avg_blocked_cycles::no_mshrs          nan                       # average number of cycles each access was blocked
system.cpu1.dcache.avg_blocked_cycles::no_targets          nan                       # average number of cycles each access was blocked
system.cpu1.dcache.writebacks::.writebacks       213379                       # number of writebacks
system.cpu1.dcache.writebacks::total           213379                       # number of writebacks
system.cpu1.dcache.demand_mshr_hits::.cpu1.data       209352                       # number of demand (read+write) MSHR hits
system.cpu1.dcache.demand_mshr_hits::total       209352                       # number of demand (read+write) MSHR hits
system.cpu1.dcache.overall_mshr_hits::.cpu1.data       209352                       # number of overall MSHR hits
system.cpu1.dcache.overall_mshr_hits::total       209352                       # number of overall MSHR hits
system.cpu1.dcache.demand_mshr_misses::.cpu1.data       227830                       # number of demand (read+write) MSHR misses
system.cpu1.dcache.demand_mshr_misses::total       227830                       # number of demand (read+write) MSHR misses
system.cpu1.dcache.overall_mshr_misses::.cpu1.data       227830                       # number of overall MSHR misses
system.cpu1.dcache.overall_mshr_misses::total       227830                       # number of overall MSHR misses
system.cpu1.dcache.demand_mshr_miss_latency::.cpu1.data  17449685500                       # number of demand (read+write) MSHR miss cycles
system.cpu1.dcache.demand_mshr_miss_latency::total  17449685500                       # number of demand (read+write) MSHR miss cycles
system.cpu1.dcache.overall_mshr_miss_latency::.cpu1.data  17449685500                       # number of overall MSHR miss cycles
system.cpu1.dcache.overall_mshr_miss_latency::total  17449685500                       # number of overall MSHR miss cycles
system.cpu1.dcache.demand_mshr_miss_rate::.cpu1.data     0.104902                       # mshr miss rate for demand accesses
system.cpu1.dcache.demand_mshr_miss_rate::total     0.104902                       # mshr miss rate for demand accesses
system.cpu1.dcache.overall_mshr_miss_rate::.cpu1.data     0.104902                       # mshr miss rate for overall accesses
system.cpu1.dcache.overall_mshr_miss_rate::total     0.104902                       # mshr miss rate for overall accesses
system.cpu1.dcache.demand_avg_mshr_miss_latency::.cpu1.data 76590.815520                       # average overall mshr miss latency
system.cpu1.dcache.demand_avg_mshr_miss_latency::total 76590.815520                       # average overall mshr miss latency
system.cpu1.dcache.overall_avg_mshr_miss_latency::.cpu1.data 76590.815520                       # average overall mshr miss latency
system.cpu1.dcache.overall_avg_mshr_miss_latency::total 76590.815520                       # average overall mshr miss latency
system.cpu1.dcache.replacements                227813                       # number of replacements
system.cpu1.dcache.ReadReq_hits::.cpu1.data       394450                       # number of ReadReq hits
system.cpu1.dcache.ReadReq_hits::total         394450                       # number of ReadReq hits
system.cpu1.dcache.ReadReq_misses::.cpu1.data        16403                       # number of ReadReq misses
system.cpu1.dcache.ReadReq_misses::total        16403                       # number of ReadReq misses
system.cpu1.dcache.ReadReq_miss_latency::.cpu1.data    447942000                       # number of ReadReq miss cycles
system.cpu1.dcache.ReadReq_miss_latency::total    447942000                       # number of ReadReq miss cycles
system.cpu1.dcache.ReadReq_accesses::.cpu1.data       410853                       # number of ReadReq accesses(hits+misses)
system.cpu1.dcache.ReadReq_accesses::total       410853                       # number of ReadReq accesses(hits+misses)
system.cpu1.dcache.ReadReq_miss_rate::.cpu1.data     0.039924                       # miss rate for ReadReq accesses
system.cpu1.dcache.ReadReq_miss_rate::total     0.039924                       # miss rate for ReadReq accesses
system.cpu1.dcache.ReadReq_avg_miss_latency::.cpu1.data 27308.541121                       # average ReadReq miss latency
system.cpu1.dcache.ReadReq_avg_miss_latency::total 27308.541121                       # average ReadReq miss latency
system.cpu1.dcache.ReadReq_mshr_hits::.cpu1.data          301                       # number of ReadReq MSHR hits
system.cpu1.dcache.ReadReq_mshr_hits::total          301                       # number of ReadReq MSHR hits
[...]
system.mem_ctrls.bytesPerActivate::mean    703.350499                       # Bytes accessed per row activation
system.mem_ctrls.bytesPerActivate::gmean   484.752090                       # Bytes accessed per row activation
system.mem_ctrls.bytesPerActivate::stdev   404.810419                       # Bytes accessed per row activation
system.mem_ctrls.bytesPerActivate::0-127         6479     16.28%     16.28% # Bytes accessed per row activation
system.mem_ctrls.bytesPerActivate::128-255         3131      7.87%     24.14% # Bytes accessed per row activation
system.mem_ctrls.bytesPerActivate::256-383         2406      6.04%     30.18% # Bytes accessed per row activation
system.mem_ctrls.bytesPerActivate::384-511         1459      3.67%     33.85% # Bytes accessed per row activation
system.mem_ctrls.bytesPerActivate::512-639         1019      2.56%     36.41% # Bytes accessed per row activation
system.mem_ctrls.bytesPerActivate::640-767          920      2.31%     38.72% # Bytes accessed per row activation
system.mem_ctrls.bytesPerActivate::768-895         1080      2.71%     41.43% # Bytes accessed per row activation
system.mem_ctrls.bytesPerActivate::896-1023         1076      2.70%     44.14% # Bytes accessed per row activation
system.mem_ctrls.bytesPerActivate::1024-1151        22239     55.86%    100.00% # Bytes accessed per row activation
system.mem_ctrls.bytesPerActivate::total        39809                       # Bytes accessed per row activation
system.mem_ctrls.rdPerTurnAround::samples        13211                       # Reads before turning the bus around for writes
system.mem_ctrls.rdPerTurnAround::mean      17.077208                       # Reads before turning the bus around for writes
system.mem_ctrls.rdPerTurnAround::gmean     16.578725                       # Reads before turning the bus around for writes
system.mem_ctrls.rdPerTurnAround::stdev     10.039872                       # Reads before turning the bus around for writes
system.mem_ctrls.rdPerTurnAround::0-31          13050     98.78%     98.78% # Reads before turning the bus around for writes
system.mem_ctrls.rdPerTurnAround::32-63            88      0.67%     99.45% # Reads before turning the bus around for writes
system.mem_ctrls.rdPerTurnAround::64-95            37      0.28%     99.73% # Reads before turning the bus around for writes
system.mem_ctrls.rdPerTurnAround::96-127           19      0.14%     99.87% # Reads before turning the bus around for writes
system.mem_ctrls.rdPerTurnAround::128-159            9      0.07%     99.94% # Reads before turning the bus around for writes
system.mem_ctrls.rdPerTurnAround::160-191            4      0.03%     99.97% # Reads before turning the bus around for writes
system.mem_ctrls.rdPerTurnAround::224-255            1      0.01%     99.98% # Reads before turning the bus around for writes
system.mem_ctrls.rdPerTurnAround::288-319            1      0.01%     99.98% # Reads before turning the bus around for writes
system.mem_ctrls.rdPerTurnAround::352-383            1      0.01%     99.99% # Reads before turning the bus around for writes
system.mem_ctrls.rdPerTurnAround::672-703            1      0.01%    100.00% # Reads before turning the bus around for writes
system.mem_ctrls.rdPerTurnAround::total         13211                       # Reads before turning the bus around for writes
system.mem_ctrls.wrPerTurnAround::samples        13211                       # Writes before turning the bus around for reads
system.mem_ctrls.wrPerTurnAround::mean      16.037999                       # Writes before turning the bus around for reads
system.mem_ctrls.wrPerTurnAround::gmean     16.035549                       # Writes before turning the bus around for reads
system.mem_ctrls.wrPerTurnAround::stdev      0.293627                       # Writes before turning the bus around for reads
system.mem_ctrls.wrPerTurnAround::16            12979     98.24%     98.24% # Writes before turning the bus around for reads
system.mem_ctrls.wrPerTurnAround::17               16      0.12%     98.36% # Writes before turning the bus around for reads
system.mem_ctrls.wrPerTurnAround::18              166      1.26%     99.62% # Writes before turning the bus around for reads
system.mem_ctrls.wrPerTurnAround::19               46      0.35%     99.97% # Writes before turning the bus around for reads
system.mem_ctrls.wrPerTurnAround::20                4      0.03%    100.00% # Writes before turning the bus around for reads
system.mem_ctrls.wrPerTurnAround::total         13211                       # Writes before turning the bus around for reads
system.mem_ctrls.bytesReadDRAM               14439616                       # Total number of bytes read from DRAM
system.mem_ctrls.bytesReadWrQ                   22784                       # Total number of bytes read from write queue
system.mem_ctrls.bytesWritten                13560192                       # Total number of bytes written to DRAM
system.mem_ctrls.bytesReadSys                14462400                       # Total read bytes from the system interface side
system.mem_ctrls.bytesWrittenSys             13562496                       # Total written bytes from the system interface side
system.mem_ctrls.avgRdBW                       716.01                       # Average DRAM read bandwidth in MiByte/s
system.mem_ctrls.avgWrBW                       672.40                       # Average achieved write bandwidth in MiByte/s
system.mem_ctrls.avgRdBWSys                    717.14                       # Average system read bandwidth in MiByte/s
system.mem_ctrls.avgWrBWSys                    672.51                       # Average system write bandwidth in MiByte/s
system.mem_ctrls.peakBW                      12800.00                       # Theoretical peak bandwidth in MiByte/s
system.mem_ctrls.busUtil                        10.85                       # Data bus utilization in percentage
system.mem_ctrls.busUtilRead                     5.59                       # Data bus utilization in percentage for reads
system.mem_ctrls.busUtilWrite                    5.25                       # Data bus utilization in percentage for writes
system.mem_ctrls.totGap                   20166804000                       # Total gap between requests
system.mem_ctrls.avgGap                      46054.60                       # Average gap between requests
system.mem_ctrls.masterReadBytes::.cpu0.inst       189696                       # Per-master bytes read from memory
system.mem_ctrls.masterReadBytes::.cpu0.data       707456                       # Per-master bytes read from memory
system.mem_ctrls.masterReadBytes::.cpu1.inst       123584                       # Per-master bytes read from memory
system.mem_ctrls.masterReadBytes::.cpu1.data     13418880                       # Per-master bytes read from memory
system.mem_ctrls.masterWriteBytes::.writebacks     13560192                       # Per-master bytes write to memory
system.mem_ctrls.masterReadRate::.cpu0.inst 9406335.873519057408                       # Per-master bytes read from memory rate (Bytes/sec)
system.mem_ctrls.masterReadRate::.cpu0.data 35080174.340715132654                       # Per-master bytes read from memory rate (Bytes/sec)
system.mem_ctrls.masterReadRate::.cpu1.inst 6128081.839327024296                       # Per-master bytes read from memory rate (Bytes/sec)
system.mem_ctrls.masterReadRate::.cpu1.data 665393536.639925956726                       # Per-master bytes read from memory rate (Bytes/sec)
system.mem_ctrls.masterWriteRate::.writebacks 672400685.630725622177                       # Per-master bytes write to memory rate (Bytes/sec)
system.mem_ctrls.masterReadAccesses::.cpu0.inst         2964                       # Per-master read serviced memory accesses
system.mem_ctrls.masterReadAccesses::.cpu0.data        11335                       # Per-master read serviced memory accesses
system.mem_ctrls.masterReadAccesses::.cpu1.inst         1931                       # Per-master read serviced memory accesses
system.mem_ctrls.masterReadAccesses::.cpu1.data       209745                       # Per-master read serviced memory accesses
system.mem_ctrls.masterWriteAccesses::.writebacks       211914                       # Per-master write serviced memory accesses
system.mem_ctrls.masterReadTotalLat::.cpu0.inst     90632250                       # Per-master read total memory access latency
system.mem_ctrls.masterReadTotalLat::.cpu0.data    381035750                       # Per-master read total memory access latency
system.mem_ctrls.masterReadTotalLat::.cpu1.inst     58588000                       # Per-master read total memory access latency
system.mem_ctrls.masterReadTotalLat::.cpu1.data   6093158250                       # Per-master read total memory access latency
system.mem_ctrls.masterWriteTotalLat::.writebacks 499241700250                       # Per-master write total memory access latency
system.mem_ctrls.masterReadAvgLat::.cpu0.inst     30577.68                       # Per-master read average memory access latency
system.mem_ctrls.masterReadAvgLat::.cpu0.data     33615.86                       # Per-master read average memory access latency
system.mem_ctrls.masterReadAvgLat::.cpu1.inst     30340.76                       # Per-master read average memory access latency
system.mem_ctrls.masterReadAvgLat::.cpu1.data     29050.31                       # Per-master read average memory access latency
system.mem_ctrls.masterWriteAvgLat::.writebacks   2355869.36                       # Per-master write average memory access latency
system.mem_ctrls.pageHitRate                    90.89                       # Row buffer hit rate, read and write combined
system.mem_ctrls.rank1.actEnergy            147055440                       # Energy for activate commands per rank (pJ)
system.mem_ctrls.rank1.preEnergy             78161820                       # Energy for precharge commands per rank (pJ)
system.mem_ctrls.rank1.readEnergy           814331280                       # Energy for read commands per rank (pJ)
system.mem_ctrls.rank1.writeEnergy          560701080                       # Energy for write commands per rank (pJ)
system.mem_ctrls.rank1.refreshEnergy     1591917600.000000                       # Energy for refresh commands per rank (pJ)
system.mem_ctrls.rank1.actBackEnergy       7003179030                       # Energy for active background per rank (pJ)
system.mem_ctrls.rank1.preBackEnergy       1846649760                       # Energy for precharge background per rank (pJ)
system.mem_ctrls.rank1.actPowerDownEnergy            0                       # Energy for active power-down per rank (pJ)
system.mem_ctrls.rank1.prePowerDownEnergy            0                       # Energy for precharge power-down per rank (pJ)
system.mem_ctrls.rank1.selfRefreshEnergy            0                       # Energy for self refresh per rank (pJ)
system.mem_ctrls.rank1.totalEnergy        12041996010                       # Total energy per rank (pJ)
system.mem_ctrls.rank1.averagePower        597.118859                       # Core power per rank (mW)
system.mem_ctrls.rank1.totalIdleTime                0                       # Total Idle time Per DRAM Rank
system.mem_ctrls.rank1.memoryStateTime::IDLE   4699989000                       # Time in different power states
system.mem_ctrls.rank1.memoryStateTime::REF    673400000                       # Time in different power states
system.mem_ctrls.rank1.memoryStateTime::SREF            0                       # Time in different power states
system.mem_ctrls.rank1.memoryStateTime::PRE_PDN            0                       # Time in different power states
system.mem_ctrls.rank1.memoryStateTime::ACT  14793443500                       # Time in different power states
system.mem_ctrls.rank1.memoryStateTime::ACT_PDN            0                       # Time in different power states
system.mem_ctrls.rank0.actEnergy            137187960                       # Energy for activate commands per rank (pJ)
system.mem_ctrls.rank0.preEnergy             72913335                       # Energy for precharge commands per rank (pJ)
system.mem_ctrls.rank0.readEnergy           796588380                       # Energy for read commands per rank (pJ)
system.mem_ctrls.rank0.writeEnergy          545302080                       # Energy for write commands per rank (pJ)
system.mem_ctrls.rank0.refreshEnergy     1591917600.000000                       # Energy for refresh commands per rank (pJ)
system.mem_ctrls.rank0.actBackEnergy       6687524430                       # Energy for active background per rank (pJ)
system.mem_ctrls.rank0.preBackEnergy       2112464160                       # Energy for precharge background per rank (pJ)
system.mem_ctrls.rank0.actPowerDownEnergy            0                       # Energy for active power-down per rank (pJ)
system.mem_ctrls.rank0.prePowerDownEnergy            0                       # Energy for precharge power-down per rank (pJ)
system.mem_ctrls.rank0.selfRefreshEnergy            0                       # Energy for self refresh per rank (pJ)
system.mem_ctrls.rank0.totalEnergy        11943897945                       # Total energy per rank (pJ)
system.mem_ctrls.rank0.averagePower        592.254532                       # Core power per rank (mW)
system.mem_ctrls.rank0.totalIdleTime                0                       # Total Idle time Per DRAM Rank
system.mem_ctrls.rank0.memoryStateTime::IDLE   5393539500                       # Time in different power states
system.mem_ctrls.rank0.memoryStateTime::REF    673400000                       # Time in different power states
system.mem_ctrls.rank0.memoryStateTime::SREF            0                       # Time in different power states
system.mem_ctrls.rank0.memoryStateTime::PRE_PDN            0                       # Time in different power states
system.mem_ctrls.rank0.memoryStateTime::ACT  14099893000                       # Time in different power states
system.mem_ctrls.rank0.memoryStateTime::ACT_PDN            0                       # Time in different power states
system.mem_ctrls.power_state.pwrStateResidencyTicks::UNDEFINED  20166832500                       # Cumulative time (in ticks) in various power states
system.cpu_clk_domain.clock                       500                       # Clock period in ticks
system.tol2bus.trans_dist::ReadResp            363879                       # Transaction distribution
system.tol2bus.trans_dist::WritebackDirty       693909                       # Transaction distribution
system.tol2bus.trans_dist::WritebackClean        79259                       # Transaction distribution
system.tol2bus.trans_dist::CleanEvict           39994                       # Transaction distribution
system.tol2bus.trans_dist::ReadExReq           223612                       # Transaction distribution
system.tol2bus.trans_dist::ReadExResp          223611                       # Transaction distribution
system.tol2bus.trans_dist::ReadCleanReq         79291                       # Transaction distribution
system.tol2bus.trans_dist::ReadSharedReq       284588                       # Transaction distribution
system.tol2bus.pkt_count_system.cpu0.icache.mem_side::system.l2.cpu_side       211235                       # Packet count per connected master and slave (bytes)
system.tol2bus.pkt_count_system.cpu0.dcache.mem_side::system.l2.cpu_side       841094                       # Packet count per connected master and slave (bytes)
system.tol2bus.pkt_count_system.cpu1.icache.mem_side::system.l2.cpu_side        26606                       # Packet count per connected master and slave (bytes)
system.tol2bus.pkt_count_system.cpu1.dcache.mem_side::system.l2.cpu_side       683472                       # Packet count per connected master and slave (bytes)
system.tol2bus.pkt_count::total               1762407                       # Packet count per connected master and slave (bytes)
system.tol2bus.pkt_size_system.cpu0.icache.mem_side::system.l2.cpu_side      9012352                       # Cumulative packet size per connected master and slave (bytes)
system.tol2bus.pkt_size_system.cpu0.dcache.mem_side::system.l2.cpu_side     35135104                       # Cumulative packet size per connected master and slave (bytes)
system.tol2bus.pkt_size_system.cpu1.icache.mem_side::system.l2.cpu_side      1134848                       # Cumulative packet size per connected master and slave (bytes)
system.tol2bus.pkt_size_system.cpu1.dcache.mem_side::system.l2.cpu_side     28237312                       # Cumulative packet size per connected master and slave (bytes)
system.tol2bus.pkt_size::total               73519616                       # Cumulative packet size per connected master and slave (bytes)
system.tol2bus.snoops                          225736                       # Total snoops (count)
system.tol2bus.snoopTraffic                  13562496                       # Total snoop traffic (bytes)
system.tol2bus.snoop_fanout::samples           813227                       # Request fanout histogram
system.tol2bus.snoop_fanout::mean            0.001097                       # Request fanout histogram
system.tol2bus.snoop_fanout::stdev           0.033101                       # Request fanout histogram
system.tol2bus.snoop_fanout::underflows             0      0.00%      0.00% # Request fanout histogram
system.tol2bus.snoop_fanout::0                 812335     99.89%     99.89% # Request fanout histogram
system.tol2bus.snoop_fanout::1                    892      0.11%    100.00% # Request fanout histogram
system.tol2bus.snoop_fanout::2                      0      0.00%    100.00% # Request fanout histogram
system.tol2bus.snoop_fanout::3                      0      0.00%    100.00% # Request fanout histogram
system.tol2bus.snoop_fanout::4                      0      0.00%    100.00% # Request fanout histogram
system.tol2bus.snoop_fanout::5                      0      0.00%    100.00% # Request fanout histogram
system.tol2bus.snoop_fanout::6                      0      0.00%    100.00% # Request fanout histogram
system.tol2bus.snoop_fanout::7                      0      0.00%    100.00% # Request fanout histogram
system.tol2bus.snoop_fanout::8                      0      0.00%    100.00% # Request fanout histogram
system.tol2bus.snoop_fanout::overflows              0      0.00%    100.00% # Request fanout histogram
system.tol2bus.snoop_fanout::min_value              0                       # Request fanout histogram
system.tol2bus.snoop_fanout::max_value              1                       # Request fanout histogram
system.tol2bus.snoop_fanout::total             813227                       # Request fanout histogram
system.tol2bus.reqLayer0.occupancy         1148712500                       # Layer occupancy (ticks)
system.tol2bus.reqLayer0.utilization              5.7                       # Layer utilization (%)
system.tol2bus.respLayer5.occupancy         342712558                       # Layer occupancy (ticks)
system.tol2bus.respLayer5.utilization             1.7                       # Layer utilization (%)
system.tol2bus.respLayer4.occupancy          13332457                       # Layer occupancy (ticks)
system.tol2bus.respLayer4.utilization             0.1                       # Layer utilization (%)
system.tol2bus.respLayer1.occupancy         420590429                       # Layer occupancy (ticks)
system.tol2bus.respLayer1.utilization             2.1                       # Layer utilization (%)
system.tol2bus.respLayer0.occupancy         105645958                       # Layer occupancy (ticks)
system.tol2bus.respLayer0.utilization             0.5                       # Layer utilization (%)
system.tol2bus.power_state.pwrStateResidencyTicks::UNDEFINED  20166832500                       # Cumulative time (in ticks) in various power states

---------- End Simulation Statistics   ----------
