
---------- Begin Simulation Statistics ----------
final_tick                                37595126000                       # Number of ticks from beginning of simulation (restored from checkpoints and never reset)
host_inst_rate                                 208261                       # Simulator instruction rate (inst/s)
host_mem_usage                                4435684                       # Number of bytes of host memory used
host_op_rate                                   352445                       # Simulator op (including micro ops) rate (op/s)
host_seconds                                    65.62                       # Real time elapsed on the host
host_tick_rate                              572904054                       # Simulator tick rate (ticks/s)
sim_freq                                 1000000000000                       # Frequency of simulated ticks
sim_insts                                    13666496                       # Number of instructions simulated
sim_ops                                      23128149                       # Number of ops (including micro ops) simulated
sim_seconds                                  0.037595                       # Number of seconds simulated
sim_ticks                                 37595126000                       # Number of ticks simulated
system.cpu0.branchPred.BTBCorrect                   0                       # Number of correct BTB predictions (this stat may not work properly.
system.cpu0.branchPred.BTBHitPct                  nan                       # BTB Hit Percentage
system.cpu0.branchPred.BTBHits                      0                       # Number of BTB hits
system.cpu0.branchPred.BTBLookups                   0                       # Number of BTB lookups
system.cpu0.branchPred.RASInCorrect                 0                       # Number of incorrect RAS predictions.
system.cpu0.branchPred.condIncorrect               30                       # Number of conditional branches incorrect
system.cpu0.branchPred.condPredicted               68                       # Number of conditional branches predicted
system.cpu0.branchPred.indirectHits                 0                       # Number of indirect target hits.
system.cpu0.branchPred.indirectLookups             21                       # Number of indirect predictor lookups.
system.cpu0.branchPred.indirectMisses              21                       # Number of indirect misses.
system.cpu0.branchPred.lookups                     68                       # Number of BP lookups
system.cpu0.branchPred.usedRAS                      0                       # Number of times the RAS was used to get a target.
system.cpu0.branchPredindirectMispredicted           12                       # Number of mispredicted indirect branches.
system.cpu0.committedInsts                    3666496                       # Number of instructions committed
system.cpu0.committedOps                      6764688                       # Number of ops (including micro ops) committed
system.cpu0.cpi                             20.507382                       # CPI: cycles per instruction
system.cpu0.discardedOps                      2166209                       # Number of ops (including micro ops) which were discarded before commit
system.cpu0.dtb.rdAccesses                     598608                       # TLB accesses on read requests
system.cpu0.dtb.rdMisses                         2012                       # TLB misses on read requests
system.cpu0.dtb.wrAccesses                    3251453                       # TLB accesses on write requests
system.cpu0.dtb.wrMisses                        12269                       # TLB misses on write requests
system.cpu0.fetch2.amo_instructions                 0                       # Number of memory atomic instructions successfully decoded
system.cpu0.fetch2.fp_instructions                  0                       # Number of floating point instructions successfully decoded
system.cpu0.fetch2.int_instructions                 8                       # Number of integer instructions successfully decoded
system.cpu0.fetch2.load_instructions                0                       # Number of memory load instructions successfully decoded
system.cpu0.fetch2.store_instructions               0                       # Number of memory store instructions successfully decoded
system.cpu0.fetch2.vec_instructions                 0                       # Number of SIMD instructions successfully decoded
system.cpu0.idleCycles                       64038389                       # Total number of cycles that the object has spent stopped
system.cpu0.ipc                              0.048763                       # IPC: instructions per cycle
system.cpu0.itb.rdAccesses                          0                       # TLB accesses on read requests
system.cpu0.itb.rdMisses                            0                       # TLB misses on read requests
system.cpu0.itb.wrAccesses                    1392760                       # TLB accesses on write requests
system.cpu0.itb.wrMisses                          197                       # TLB misses on write requests
system.cpu0.numCycles                        75190235                       # number of cpu cycles simulated
system.cpu0.numFetchSuspends                        0                       # Number of times Execute suspended instruction fetching
system.cpu0.numWorkItemsCompleted                   0                       # number of work items this cpu completed
system.cpu0.numWorkItemsStarted                     0                       # number of work items this cpu started
system.cpu0.op_class_0::No_OpClass               2098      0.03%      0.03% # Class of committed instruction
system.cpu0.op_class_0::IntAlu                3305894     48.87%     48.90% # Class of committed instruction
system.cpu0.op_class_0::IntMult                   641      0.01%     48.91% # Class of committed instruction
system.cpu0.op_class_0::IntDiv                   1317      0.02%     48.93% # Class of committed instruction
system.cpu0.op_class_0::FloatAdd                  189      0.00%     48.93% # Class of committed instruction
system.cpu0.op_class_0::FloatCmp                    0      0.00%     48.93% # Class of committed instruction
system.cpu0.op_class_0::FloatCvt                   96      0.00%     48.93% # Class of committed instruction
system.cpu0.op_class_0::FloatMult                   0      0.00%     48.93% # Class of committed instruction
system.cpu0.op_class_0::FloatMultAcc                0      0.00%     48.93% # Class of committed instruction
system.cpu0.op_class_0::FloatDiv                    0      0.00%     48.93% # Class of committed instruction
system.cpu0.op_class_0::FloatMisc                   0      0.00%     48.93% # Class of committed instruction
system.cpu0.op_class_0::FloatSqrt                   0      0.00%     48.93% # Class of committed instruction
system.cpu0.op_class_0::SimdAdd                   916      0.01%     48.95% # Class of committed instruction
system.cpu0.op_class_0::SimdAddAcc                  0      0.00%     48.95% # Class of committed instruction
system.cpu0.op_class_0::SimdAlu                   943      0.01%     48.96% # Class of committed instruction
system.cpu0.op_class_0::SimdCmp                     0      0.00%     48.96% # Class of committed instruction
system.cpu0.op_class_0::SimdCvt                  1230      0.02%     48.98% # Class of committed instruction
system.cpu0.op_class_0::SimdMisc                  843      0.01%     48.99% # Class of committed instruction
system.cpu0.op_class_0::SimdMult                    0      0.00%     48.99% # Class of committed instruction
system.cpu0.op_class_0::SimdMultAcc                 0      0.00%     48.99% # Class of committed instruction
system.cpu0.op_class_0::SimdShift                 388      0.01%     49.00% # Class of committed instruction
system.cpu0.op_class_0::SimdShiftAcc                0      0.00%     49.00% # Class of committed instruction
system.cpu0.op_class_0::SimdDiv                     0      0.00%     49.00% # Class of committed instruction
system.cpu0.op_class_0::SimdSqrt                    0      0.00%     49.00% # Class of committed instruction
system.cpu0.op_class_0::SimdFloatAdd                0      0.00%     49.00% # Class of committed instruction
system.cpu0.op_class_0::SimdFloatAlu                0      0.00%     49.00% # Class of committed instruction
system.cpu0.op_class_0::SimdFloatCmp                0      0.00%     49.00% # Class of committed instruction
system.cpu0.op_class_0::SimdFloatCvt                0      0.00%     49.00% # Class of committed instruction
system.cpu0.op_class_0::SimdFloatDiv                0      0.00%     49.00% # Class of committed instruction
system.cpu0.op_class_0::SimdFloatMisc               0      0.00%     49.00% # Class of committed instruction
system.cpu0.op_class_0::SimdFloatMult               0      0.00%     49.00% # Class of committed instruction
system.cpu0.op_class_0::SimdFloatMultAcc            0      0.00%     49.00% # Class of committed instruction
system.cpu0.op_class_0::SimdFloatSqrt               0      0.00%     49.00% # Class of committed instruction
system.cpu0.op_class_0::SimdReduceAdd               0      0.00%     49.00% # Class of committed instruction
system.cpu0.op_class_0::SimdReduceAlu               0      0.00%     49.00% # Class of committed instruction
system.cpu0.op_class_0::SimdReduceCmp               0      0.00%     49.00% # Class of committed instruction
system.cpu0.op_class_0::SimdFloatReduceAdd            0      0.00%     49.00% # Class of committed instruction
system.cpu0.op_class_0::SimdFloatReduceCmp            0      0.00%     49.00% # Class of committed instruction
system.cpu0.op_class_0::SimdAes                     0      0.00%     49.00% # Class of committed instruction
system.cpu0.op_class_0::SimdAesMix                  0      0.00%     49.00% # Class of committed instruction
system.cpu0.op_class_0::SimdSha1Hash                0      0.00%     49.00% # Class of committed instruction
system.cpu0.op_class_0::SimdSha1Hash2               0      0.00%     49.00% # Class of committed instruction
system.cpu0.op_class_0::SimdSha256Hash              0      0.00%     49.00% # Class of committed instruction
system.cpu0.op_class_0::SimdSha256Hash2             0      0.00%     49.00% # Class of committed instruction
system.cpu0.op_class_0::SimdShaSigma2               0      0.00%     49.00% # Class of committed instruction
system.cpu0.op_class_0::SimdShaSigma3               0      0.00%     49.00% # Class of committed instruction
system.cpu0.op_class_0::SimdPredAlu                 0      0.00%     49.00% # Class of committed instruction
system.cpu0.op_class_0::MemRead                199681      2.95%     51.95% # Class of committed instruction
system.cpu0.op_class_0::MemWrite               133412      1.97%     53.92% # Class of committed instruction
system.cpu0.op_class_0::FloatMemRead             1610      0.02%     53.95% # Class of committed instruction
system.cpu0.op_class_0::FloatMemWrite         3115430     46.05%    100.00% # Class of committed instruction
system.cpu0.op_class_0::IprAccess                   0      0.00%    100.00% # Class of committed instruction
system.cpu0.op_class_0::InstPrefetch                0      0.00%    100.00% # Class of committed instruction
system.cpu0.op_class_0::total                 6764688                       # Class of committed instruction
system.cpu0.tickCycles                       11151846                       # Number of cycles that the object actually ticked
system.cpu0.workload.numSyscalls                   30                       # Number of system calls
system.cpu1.branchPred.BTBCorrect                   0                       # Number of correct BTB predictions (this stat may not work properly.
system.cpu1.branchPred.BTBHitPct                  nan                       # BTB Hit Percentage
system.cpu1.branchPred.BTBHits                      0                       # Number of BTB hits
system.cpu1.branchPred.BTBLookups                   0                       # Number of BTB lookups
system.cpu1.branchPred.RASInCorrect                 0                       # Number of incorrect RAS predictions.
system.cpu1.branchPred.condIncorrect               37                       # Number of conditional branches incorrect
system.cpu1.branchPred.condPredicted               82                       # Number of conditional branches predicted
system.cpu1.branchPred.indirectHits                 0                       # Number of indirect target hits.
system.cpu1.branchPred.indirectLookups             24                       # Number of indirect predictor lookups.
system.cpu1.branchPred.indirectMisses              24                       # Number of indirect misses.
system.cpu1.branchPred.lookups                     82                       # Number of BP lookups
system.cpu1.branchPred.usedRAS                      0                       # Number of times the RAS was used to get a target.
system.cpu1.branchPredindirectMispredicted           10                       # Number of mispredicted indirect branches.
system.cpu1.committedInsts                   10000000                       # Number of instructions committed
system.cpu1.committedOps                     16363461                       # Number of ops (including micro ops) committed
system.cpu1.cpi                              7.519025                       # CPI: cycles per instruction
system.cpu1.discardedOps                      5149766                       # Number of ops (including micro ops) which were discarded before commit
system.cpu1.dtb.rdAccesses                    1469158                       # TLB accesses on read requests
system.cpu1.dtb.rdMisses                         2714                       # TLB misses on read requests
system.cpu1.dtb.wrAccesses                     672207                       # TLB accesses on write requests
system.cpu1.dtb.wrMisses                           91                       # TLB misses on write requests
system.cpu1.fetch2.amo_instructions                 0                       # Number of memory atomic instructions successfully decoded
system.cpu1.fetch2.fp_instructions                  0                       # Number of floating point instructions successfully decoded
system.cpu1.fetch2.int_instructions                 9                       # Number of integer instructions successfully decoded
system.cpu1.fetch2.load_instructions                0                       # Number of memory load instructions successfully decoded
system.cpu1.fetch2.store_instructions               0                       # Number of memory store instructions successfully decoded
system.cpu1.fetch2.vec_instructions                 0                       # Number of SIMD instructions successfully decoded
system.cpu1.idleCycles                       42483592                       # Total number of cycles that the object has spent stopped
system.cpu1.ipc                              0.132996                       # IPC: instructions per cycle
system.cpu1.itb.rdAccesses                          0                       # TLB accesses on read requests
system.cpu1.itb.rdMisses                            0                       # TLB misses on read requests
system.cpu1.itb.wrAccesses                    4764261                       # TLB accesses on write requests
system.cpu1.itb.wrMisses                          245                       # TLB misses on write requests
system.cpu1.numCycles                        75190252                       # number of cpu cycles simulated
system.cpu1.numFetchSuspends                        0                       # Number of times Execute suspended instruction fetching
system.cpu1.numWorkItemsCompleted                   0                       # number of work items this cpu completed
system.cpu1.numWorkItemsStarted                     0                       # number of work items this cpu started
system.cpu1.op_class_0::No_OpClass              12560      0.08%      0.08% # Class of committed instruction
system.cpu1.op_class_0::IntAlu               14085339     86.08%     86.15% # Class of committed instruction
system.cpu1.op_class_0::IntMult                  6224      0.04%     86.19% # Class of committed instruction
system.cpu1.op_class_0::IntDiv                   1592      0.01%     86.20% # Class of committed instruction
system.cpu1.op_class_0::FloatAdd               139604      0.85%     87.06% # Class of committed instruction
system.cpu1.op_class_0::FloatCmp                    0      0.00%     87.06% # Class of committed instruction
system.cpu1.op_class_0::FloatCvt                  144      0.00%     87.06% # Class of committed instruction
system.cpu1.op_class_0::FloatMult                   0      0.00%     87.06% # Class of committed instruction
system.cpu1.op_class_0::FloatMultAcc                0      0.00%     87.06% # Class of committed instruction
system.cpu1.op_class_0::FloatDiv                    0      0.00%     87.06% # Class of committed instruction
system.cpu1.op_class_0::FloatMisc                   0      0.00%     87.06% # Class of committed instruction
system.cpu1.op_class_0::FloatSqrt                   0      0.00%     87.06% # Class of committed instruction
system.cpu1.op_class_0::SimdAdd                  1170      0.01%     87.06% # Class of committed instruction
system.cpu1.op_class_0::SimdAddAcc                  0      0.00%     87.06% # Class of committed instruction
system.cpu1.op_class_0::SimdAlu                  1323      0.01%     87.07% # Class of committed instruction
system.cpu1.op_class_0::SimdCmp                     6      0.00%     87.07% # Class of committed instruction
system.cpu1.op_class_0::SimdCvt                  1838      0.01%     87.08% # Class of committed instruction
system.cpu1.op_class_0::SimdMisc                17658      0.11%     87.19% # Class of committed instruction
system.cpu1.op_class_0::SimdMult                    0      0.00%     87.19% # Class of committed instruction
system.cpu1.op_class_0::SimdMultAcc                 0      0.00%     87.19% # Class of committed instruction
system.cpu1.op_class_0::SimdShift                 408      0.00%     87.19% # Class of committed instruction
system.cpu1.op_class_0::SimdShiftAcc                0      0.00%     87.19% # Class of committed instruction
system.cpu1.op_class_0::SimdDiv                     0      0.00%     87.19% # Class of committed instruction
system.cpu1.op_class_0::SimdSqrt                    0      0.00%     87.19% # Class of committed instruction
system.cpu1.op_class_0::SimdFloatAdd            28658      0.18%     87.37% # Class of committed instruction
system.cpu1.op_class_0::SimdFloatAlu                0      0.00%     87.37% # Class of committed instruction
system.cpu1.op_class_0::SimdFloatCmp                0      0.00%     87.37% # Class of committed instruction
system.cpu1.op_class_0::SimdFloatCvt            34832      0.21%     87.58% # Class of committed instruction
system.cpu1.op_class_0::SimdFloatDiv               22      0.00%     87.58% # Class of committed instruction
system.cpu1.op_class_0::SimdFloatMisc               0      0.00%     87.58% # Class of committed instruction
system.cpu1.op_class_0::SimdFloatMult           49128      0.30%     87.88% # Class of committed instruction
system.cpu1.op_class_0::SimdFloatMultAcc            0      0.00%     87.88% # Class of committed instruction
system.cpu1.op_class_0::SimdFloatSqrt               0      0.00%     87.88% # Class of committed instruction
system.cpu1.op_class_0::SimdReduceAdd               0      0.00%     87.88% # Class of committed instruction
system.cpu1.op_class_0::SimdReduceAlu               0      0.00%     87.88% # Class of committed instruction
system.cpu1.op_class_0::SimdReduceCmp               0      0.00%     87.88% # Class of committed instruction
system.cpu1.op_class_0::SimdFloatReduceAdd            0      0.00%     87.88% # Class of committed instruction
system.cpu1.op_class_0::SimdFloatReduceCmp            0      0.00%     87.88% # Class of committed instruction
system.cpu1.op_class_0::SimdAes                     0      0.00%     87.88% # Class of committed instruction
system.cpu1.op_class_0::SimdAesMix                  0      0.00%     87.88% # Class of committed instruction
system.cpu1.op_class_0::SimdSha1Hash                0      0.00%     87.88% # Class of committed instruction
system.cpu1.op_class_0::SimdSha1Hash2               0      0.00%     87.88% # Class of committed instruction
system.cpu1.op_class_0::SimdSha256Hash              0      0.00%     87.88% # Class of committed instruction
system.cpu1.op_class_0::SimdSha256Hash2             0      0.00%     87.88% # Class of committed instruction
system.cpu1.op_class_0::SimdShaSigma2               0      0.00%     87.88% # Class of committed instruction
system.cpu1.op_class_0::SimdShaSigma3               0      0.00%     87.88% # Class of committed instruction
system.cpu1.op_class_0::SimdPredAlu                 0      0.00%     87.88% # Class of committed instruction
system.cpu1.op_class_0::MemRead               1263997      7.72%     95.61% # Class of committed instruction
system.cpu1.op_class_0::MemWrite               592755      3.62%     99.23% # Class of committed instruction
system.cpu1.op_class_0::FloatMemRead            80716      0.49%     99.72% # Class of committed instruction
system.cpu1.op_class_0::FloatMemWrite           45487      0.28%    100.00% # Class of committed instruction
system.cpu1.op_class_0::IprAccess                   0      0.00%    100.00% # Class of committed instruction
system.cpu1.op_class_0::InstPrefetch                0      0.00%    100.00% # Class of committed instruction
system.cpu1.op_class_0::total                16363461                       # Class of committed instruction
system.cpu1.tickCycles                       32706660                       # Number of cycles that the object actually ticked
system.cpu1.workload.numSyscalls                   37                       # Number of system calls
system.membus.snoop_filter.hit_multi_requests            0                       # Number of requests hitting in the snoop filter with multiple (>1) holders of the requested data.
system.membus.snoop_filter.hit_multi_snoops            0                       # Number of snoops hitting in the snoop filter with multiple (>1) holders of the requested data.
system.membus.snoop_filter.hit_single_requests       653037                       # Number of requests hitting in the snoop filter with a single holder of the requested data.
system.membus.snoop_filter.hit_single_snoops            0                       # Number of snoops hitting in the snoop filter with a single holder of the requested data.
system.membus.snoop_filter.tot_requests       1307117                       # Total number of requests made to the snoop filter.
system.membus.snoop_filter.tot_snoops               0                       # Total number of snoops made to the snoop filter.
system.tol2bus.snoop_filter.hit_multi_requests            0                       # Number of requests hitting in the snoop filter with multiple (>1) holders of the requested data.
system.tol2bus.snoop_filter.hit_multi_snoops            0                       # Number of snoops hitting in the snoop filter with multiple (>1) holders of the requested data.
system.tol2bus.snoop_filter.hit_single_requests       775728                       # Number of requests hitting in the snoop filter with a single holder of the requested data.
system.tol2bus.snoop_filter.hit_single_snoops         6075                       # Number of snoops hitting in the snoop filter with a single holder of the requested data.
system.tol2bus.snoop_filter.tot_requests      1551521                       # Total number of requests made to the snoop filter.
system.tol2bus.snoop_filter.tot_snoops           6075                       # Total number of snoops made to the snoop filter.
system.membus.trans_dist::ReadResp             252439                       # Transaction distribution
system.membus.trans_dist::WritebackDirty       497668                       # Transaction distribution
system.membus.trans_dist::CleanEvict           155369                       # Transaction distribution
system.membus.trans_dist::ReadExReq            401641                       # Transaction distribution
system.membus.trans_dist::ReadExResp           401641                       # Transaction distribution
system.membus.trans_dist::ReadSharedReq        252439                       # Transaction distribution
system.membus.pkt_count_system.l2.mem_side::system.mem_ctrls.port      1961197                       # Packet count per connected master and slave (bytes)
system.membus.pkt_count_system.l2.mem_side::total      1961197                       # Packet count per connected master and slave (bytes)
system.membus.pkt_count::total                1961197                       # Packet count per connected master and slave (bytes)
system.membus.pkt_size_system.l2.mem_side::system.mem_ctrls.port     73711872                       # Cumulative packet size per connected master and slave (bytes)
system.membus.pkt_size_system.l2.mem_side::total     73711872                       # Cumulative packet size per connected master and slave (bytes)
system.membus.pkt_size::total                73711872                       # Cumulative packet size per connected master and slave (bytes)
system.membus.snoops                                0                       # Total snoops (count)
system.membus.snoopTraffic                          0                       # Total snoop traffic (bytes)
system.membus.snoop_fanout::samples            654080                       # Request fanout histogram
system.membus.snoop_fanout::mean                    0                       # Request fanout histogram
system.membus.snoop_fanout::stdev                   0                       # Request fanout histogram
system.membus.snoop_fanout::underflows              0      0.00%      0.00% # Request fanout histogram
system.membus.snoop_fanout::0                  654080    100.00%    100.00% # Request fanout histogram
system.membus.snoop_fanout::1                       0      0.00%    100.00% # Request fanout histogram
system.membus.snoop_fanout::overflows               0      0.00%    100.00% # Request fanout histogram
system.membus.snoop_fanout::min_value               0                       # Request fanout histogram
system.membus.snoop_fanout::max_value               0                       # Request fanout histogram
system.membus.snoop_fanout::total              654080                       # Request fanout histogram
system.membus.reqLayer4.occupancy          3570433500                       # Layer occupancy (ticks)
system.membus.reqLayer4.utilization               9.5                       # Layer utilization (%)
system.membus.respLayer1.occupancy         3460937250                       # Layer occupancy (ticks)
system.membus.respLayer1.utilization              9.2                       # Layer utilization (%)
system.membus.power_state.pwrStateResidencyTicks::UNDEFINED  37595126000                       # Cumulative time (in ticks) in various power states
system.voltage_domain.voltage                       1                       # Voltage in Volts
system.clk_domain.clock                          1000                       # Clock period in ticks
system.cpu0.icache.demand_hits::.cpu0.inst      1383828                       # number of demand (read+write) hits
system.cpu0.icache.demand_hits::total         1383828                       # number of demand (read+write) hits
system.cpu0.icache.overall_hits::.cpu0.inst      1383828                       # number of overall hits
system.cpu0.icache.overall_hits::total        1383828                       # number of overall hits
system.cpu0.icache.demand_misses::.cpu0.inst         8889                       # number of demand (read+write) misses
system.cpu0.icache.demand_misses::total          8889                       # number of demand (read+write) misses
system.cpu0.icache.overall_misses::.cpu0.inst         8889                       # number of overall misses
system.cpu0.icache.overall_misses::total         8889                       # number of overall misses
system.cpu0.icache.demand_miss_latency::.cpu0.inst    228768500                       # number of demand (read+write) miss cycles
system.cpu0.icache.demand_miss_latency::total    228768500                       # number of demand (read+write) miss cycles
system.cpu0.icache.overall_miss_latency::.cpu0.inst    228768500                       # number of overall miss cycles
system.cpu0.icache.overall_miss_latency::total    228768500                       # number of overall miss cycles
system.cpu0.icache.demand_accesses::.cpu0.inst      1392717                       # number of demand (read+write) accesses
system.cpu0.icache.demand_accesses::total      1392717                       # number of demand (read+write) accesses
system.cpu0.icache.overall_accesses::.cpu0.inst      1392717                       # number of overall (read+write) accesses
system.cpu0.icache.overall_accesses::total      1392717                       # number of overall (read+write) accesses
system.cpu0.icache.demand_miss_rate::.cpu0.inst     0.006382                       # miss rate for demand accesses
system.cpu0.icache.demand_miss_rate::total     0.006382                       # miss rate for demand accesses
system.cpu0.icache.overall_miss_rate::.cpu0.inst     0.006382                       # miss rate for overall accesses
system.cpu0.icache.overall_miss_rate::total     0.006382                       # miss rate for overall accesses
system.cpu0.icache.demand_avg_miss_latency::.cpu0.inst 25736.134548                       # average overall miss latency
system.cpu0.icache.demand_avg_miss_latency::total 25736.134548                       # average overall miss latency
system.cpu0.icache.overall_avg_miss_latency::.cpu0.inst 25736.134548                       # average overall miss latency
system.cpu0.icache.overall_avg_miss_latency::total 25736.134548                       # average overall miss latency
system.cpu0.icache.blocked_cycles::no_mshrs            0                       # number of cycles access was blocked
system.cpu0.icache.blocked_cycles::no_targets            0                       # number of cycles access was blocked
system.cpu0.icache.blocked::no_mshrs                0                       # number of cycles access was blocked
system.cpu0.icache.blocked::no_targets              0                       # number of cycles access was blocked
system.cpu0.icache.avg_blocked_cycles::no_mshrs          nan                       # average number of cycles each access was blocked
system.cpu0.icache.avg_blocked_cycles::no_targets          nan                       # average number of cycles each access was blocked
system.cpu0.icache.writebacks::.writebacks         8873                       # number of writebacks
system.cpu0.icache.writebacks::total             8873                       # number of writebacks
system.cpu0.icache.demand_mshr_misses::.cpu0.inst         8889                       # number of demand (read+write) MSHR misses
system.cpu0.icache.demand_mshr_misses::total         8889                       # number of demand (read+write) MSHR misses
system.cpu0.icache.overall_mshr_misses::.cpu0.inst         8889                       # number of overall MSHR misses
system.cpu0.icache.overall_mshr_misses::total         8889                       # number of overall MSHR misses
system.cpu0.icache.demand_mshr_miss_latency::.cpu0.inst    219879500                       # number of demand (read+write) MSHR miss cycles
system.cpu0.icache.demand_mshr_miss_latency::total    219879500                       # number of demand (read+write) MSHR miss cycles
system.cpu0.icache.overall_mshr_miss_latency::.cpu0.inst    219879500                       # number of overall MSHR miss cycles
system.cpu0.icache.overall_mshr_miss_latency::total    219879500                       # number of overall MSHR miss cycles
system.cpu0.icache.demand_mshr_miss_rate::.cpu0.inst     0.006382                       # mshr miss rate for demand accesses
system.cpu0.icache.demand_mshr_miss_rate::total     0.006382                       # mshr miss rate for demand accesses
system.cpu0.icache.overall_mshr_miss_rate::.cpu0.inst     0.006382                       # mshr miss rate for overall accesses
system.cpu0.icache.overall_mshr_miss_rate::total     0.006382                       # mshr miss rate for overall accesses
system.cpu0.icache.demand_avg_mshr_miss_latency::.cpu0.inst 24736.134548                       # average overall mshr miss latency
system.cpu0.icache.demand_avg_mshr_miss_latency::total 24736.134548                       # average overall mshr miss latency
system.cpu0.icache.overall_avg_mshr_miss_latency::.cpu0.inst 24736.134548                       # average overall mshr miss latency
system.cpu0.icache.overall_avg_mshr_miss_latency::total 24736.134548                       # average overall mshr miss latency
system.cpu0.icache.replacements                  8873                       # number of replacements
system.cpu0.icache.ReadReq_hits::.cpu0.inst      1383828                       # number of ReadReq hits
system.cpu0.icache.ReadReq_hits::total        1383828                       # number of ReadReq hits
system.cpu0.icache.ReadReq_misses::.cpu0.inst         8889                       # number of ReadReq misses
system.cpu0.icache.ReadReq_misses::total         8889                       # number of ReadReq misses
system.cpu0.icache.ReadReq_miss_latency::.cpu0.inst    228768500                       # number of ReadReq miss cycles
system.cpu0.icache.ReadReq_miss_latency::total    228768500                       # number of ReadReq miss cycles
system.cpu0.icache.ReadReq_accesses::.cpu0.inst      1392717                       # number of ReadReq accesses(hits+misses)
system.cpu0.icache.ReadReq_accesses::total      1392717                       # number of ReadReq accesses(hits+misses)
system.cpu0.icache.ReadReq_miss_rate::.cpu0.inst     0.006382                       # miss rate for ReadReq accesses
system.cpu0.icache.ReadReq_miss_rate::total     0.006382                       # miss rate for ReadReq accesses
system.cpu0.icache.ReadReq_avg_miss_latency::.cpu0.inst 25736.134548                       # average ReadReq miss latency
system.cpu0.icache.ReadReq_avg_miss_latency::total 25736.134548                       # average ReadReq miss latency
system.cpu0.icache.ReadReq_mshr_misses::.cpu0.inst         8889                       # number of ReadReq MSHR misses
system.cpu0.icache.ReadReq_mshr_misses::total         8889                       # number of ReadReq MSHR misses
system.cpu0.icache.ReadReq_mshr_miss_latency::.cpu0.inst    219879500                       # number of ReadReq MSHR miss cycles
system.cpu0.icache.ReadReq_mshr_miss_latency::total    219879500                       # number of ReadReq MSHR miss cycles
system.cpu0.icache.ReadReq_mshr_miss_rate::.cpu0.inst     0.006382                       # mshr miss rate for ReadReq accesses
system.cpu0.icache.ReadReq_mshr_miss_rate::total     0.006382                       # mshr miss rate for ReadReq accesses
system.cpu0.icache.ReadReq_avg_mshr_miss_latency::.cpu0.inst 24736.134548                       # average ReadReq mshr miss latency
system.cpu0.icache.ReadReq_avg_mshr_miss_latency::total 24736.134548                       # average ReadReq mshr miss latency
system.cpu0.icache.power_state.pwrStateResidencyTicks::UNDEFINED  37595126000                       # Cumulative time (in ticks) in various power states
system.cpu0.icache.tags.tagsinuse           15.999613                       # Cycle average of tags in use
system.cpu0.icache.tags.total_refs            1392717                       # Total number of references to valid blocks.
system.cpu0.icache.tags.sampled_refs             8889                       # Sample count of references to valid blocks.
system.cpu0.icache.tags.avg_refs           156.678704                       # Average number of references to valid blocks.
system.cpu0.icache.tags.warmup_cycle            87500                       # Cycle when the warmup percentage was hit.
system.cpu0.icache.tags.occ_blocks::.cpu0.inst    15.999613                       # Average occupied blocks per requestor
system.cpu0.icache.tags.occ_percent::.cpu0.inst     0.999976                       # Average percentage of cache occupancy
system.cpu0.icache.tags.occ_percent::total     0.999976                       # Average percentage of cache occupancy
system.cpu0.icache.tags.occ_task_id_blocks::1024           16                       # Occupied blocks per task id
system.cpu0.icache.tags.age_task_id_blocks_1024::4           16                       # Occupied blocks per task id
system.cpu0.icache.tags.occ_task_id_percent::1024            1                       # Percentage of cache occupancy per task id
system.cpu0.icache.tags.tag_accesses         11150625                       # Number of tag accesses
system.cpu0.icache.tags.data_accesses        11150625                       # Number of data accesses
system.cpu0.icache.tags.power_state.pwrStateResidencyTicks::UNDEFINED  37595126000                       # Cumulative time (in ticks) in various power states
system.cpu0.dtb.walker.power_state.pwrStateResidencyTicks::UNDEFINED  37595126000                       # Cumulative time (in ticks) in various power states
system.cpu0.interrupts.clk_domain.clock          8000                       # Clock period in ticks
system.cpu0.itb_walker_cache.blocked_cycles::no_mshrs            0                       # number of cycles access was blocked
system.cpu0.itb_walker_cache.blocked_cycles::no_targets            0                       # number of cycles access was blocked
system.cpu0.itb_walker_cache.blocked::no_mshrs            0                       # number of cycles access was blocked
system.cpu0.itb_walker_cache.blocked::no_targets            0                       # number of cycles access was blocked
system.cpu0.itb_walker_cache.avg_blocked_cycles::no_mshrs          nan                       # average number of cycles each access was blocked
system.cpu0.itb_walker_cache.avg_blocked_cycles::no_targets          nan                       # average number of cycles each access was blocked
system.cpu0.itb_walker_cache.replacements            0                       # number of replacements
system.cpu0.itb_walker_cache.power_state.pwrStateResidencyTicks::UNDEFINED  37595126000                       # Cumulative time (in ticks) in various power states
system.cpu0.itb_walker_cache.tags.tagsinuse            0                       # Cycle average of tags in use
system.cpu0.itb_walker_cache.tags.total_refs            0                       # Total number of references to valid blocks.
system.cpu0.itb_walker_cache.tags.sampled_refs            0                       # Sample count of references to valid blocks.
system.cpu0.itb_walker_cache.tags.avg_refs          nan                       # Average number of references to valid blocks.
system.cpu0.itb_walker_cache.tags.warmup_cycle            0                       # Cycle when the warmup percentage was hit.
system.cpu0.itb_walker_cache.tags.tag_accesses            0                       # Number of tag accesses
system.cpu0.itb_walker_cache.tags.data_accesses            0                       # Number of data accesses
system.cpu0.itb_walker_cache.tags.power_state.pwrStateResidencyTicks::UNDEFINED  37595126000                       # Cumulative time (in ticks) in various power states
system.cpu0.dtb_walker_cache.blocked_cycles::no_mshrs            0                       # number of cycles access was blocked
system.cpu0.dtb_walker_cache.blocked_cycles::no_targets            0                       # number of cycles access was blocked
system.cpu0.dtb_walker_cache.blocked::no_mshrs            0                       # number of cycles access was blocked
system.cpu0.dtb_walker_cache.blocked::no_targets            0                       # number of cycles access was blocked
system.cpu0.dtb_walker_cache.avg_blocked_cycles::no_mshrs          nan                       # average number of cycles each access was blocked
system.cpu0.dtb_walker_cache.avg_blocked_cycles::no_targets          nan                       # average number of cycles each access was blocked
system.cpu0.dtb_walker_cache.replacements            0                       # number of replacements
system.cpu0.dtb_walker_cache.power_state.pwrStateResidencyTicks::UNDEFINED  37595126000                       # Cumulative time (in ticks) in various power states
system.cpu0.dtb_walker_cache.tags.tagsinuse            0                       # Cycle average of tags in use
system.cpu0.dtb_walker_cache.tags.total_refs            0                       # Total number of references to valid blocks.
system.cpu0.dtb_walker_cache.tags.sampled_refs            0                       # Sample count of references to valid blocks.
system.cpu0.dtb_walker_cache.tags.avg_refs          nan                       # Average number of references to valid blocks.
system.cpu0.dtb_walker_cache.tags.warmup_cycle            0                       # Cycle when the warmup percentage was hit.
system.cpu0.dtb_walker_cache.tags.tag_accesses            0                       # Number of tag accesses
system.cpu0.dtb_walker_cache.tags.data_accesses            0                       # Number of data accesses
system.cpu0.dtb_walker_cache.tags.power_state.pwrStateResidencyTicks::UNDEFINED  37595126000                       # Cumulative time (in ticks) in various power states
system.cpu0.dcache.demand_hits::.cpu0.data      3031122                       # number of demand (read+write) hits
system.cpu0.dcache.demand_hits::total         3031122                       # number of demand (read+write) hits
system.cpu0.dcache.overall_hits::.cpu0.data      3031122                       # number of overall hits
system.cpu0.dcache.overall_hits::total        3031122                       # number of overall hits
system.cpu0.dcache.demand_misses::.cpu0.data       807704                       # number of demand (read+write) misses
system.cpu0.dcache.demand_misses::total        807704                       # number of demand (read+write) misses
system.cpu0.dcache.overall_misses::.cpu0.data       807704                       # number of overall misses
system.cpu0.dcache.overall_misses::total       807704                       # number of overall misses
system.cpu0.dcache.demand_miss_latency::.cpu0.data  66595153000                       # number of demand (read+write) miss cycles
system.cpu0.dcache.demand_miss_latency::total  66595153000                       # number of demand (read+write) miss cycles
system.cpu0.dcache.overall_miss_latency::.cpu0.data  66595153000                       # number of overall miss cycles
system.cpu0.dcache.overall_miss_latency::total  66595153000                       # number of overall miss cycles
system.cpu0.dcache.demand_accesses::.cpu0.data      3838826                       # number of demand (read+write) accesses
system.cpu0.dcache.demand_accesses::total      3838826                       # number of demand (read+write) accesses
system.cpu0.dcache.overall_accesses::.cpu0.data      3838826                       # number of overall (read+write) accesses
system.cpu0.dcache.overall_accesses::total      3838826                       # number of overall (read+write) accesses
system.cpu0.dcache.demand_miss_rate::.cpu0.data     0.210404                       # miss rate for demand accesses
system.cpu0.dcache.demand_miss_rate::total     0.210404                       # miss rate for demand accesses
system.cpu0.dcache.overall_miss_rate::.cpu0.data     0.210404                       # miss rate for overall accesses
system.cpu0.dcache.overall_miss_rate::total     0.210404                       # miss rate for overall accesses
system.cpu0.dcache.demand_avg_miss_latency::.cpu0.data 82449.948248                       # average overall miss latency
system.cpu0.dcache.demand_avg_miss_latency::total 82449.948248                       # average overall miss latency
system.cpu0.dcache.overall_avg_miss_latency::.cpu0.data 82449.948248                       # average overall miss latency
system.cpu0.dcache.overall_avg_miss_latency::total 82449.948248                       # average overall miss latency
system.cpu0.dcache.blocked_cycles::no_mshrs            0                       # number of cycles access was blocked
system.cpu0.dcache.blocked_cycles::no_targets            0                       # number of cycles access was blocked
system.cpu0.dcache.blocked::no_mshrs                0                       # number of cycles access was blocked
system.cpu0.dcache.blocked::no_targets              0                       # number of cycles access was blocked
system.cpu0.dcache.avg_blocked_cycles::no_mshrs          nan                       # average number of cycles each access was blocked
system.cpu0.dcache.avg_blocked_cycles::no_targets          nan                       # average number of cycles each access was blocked
system.cpu0.dcache.writebacks::.writebacks       399071                       # number of writebacks
system.cpu0.dcache.writebacks::total           399071                       # number of writebacks
system.cpu0.dcache.demand_mshr_hits::.cpu0.data       394657                       # number of demand (read+write) MSHR hits
system.cpu0.dcache.demand_mshr_hits::total       394657                       # number of demand (read+write) MSHR hits
system.cpu0.dcache.overall_mshr_hits::.cpu0.data       394657                       # number of overall MSHR hits
system.cpu0.dcache.overall_mshr_hits::total       394657                       # number of overall MSHR hits
system.cpu0.dcache.demand_mshr_misses::.cpu0.data       413047                       # number of demand (read+write) MSHR misses
system.cpu0.dcache.demand_mshr_misses::total       413047                       # number of demand (read+write) MSHR misses
system.cpu0.dcache.overall_mshr_misses::.cpu0.data       413047                       # number of overall MSHR misses
system.cpu0.dcache.overall_mshr_misses::total       413047                       # number of overall MSHR misses
system.cpu0.dcache.demand_mshr_miss_latency::.cpu0.data  33121634500                       # number of demand (read+write) MSHR miss cycles
system.cpu0.dcache.demand_mshr_miss_latency::total  33121634500                       # number of demand (read+write) MSHR miss cycles
system.cpu0.dcache.overall_mshr_miss_latency::.cpu0.data  33121634500                       # number of overall MSHR miss cycles
system.cpu0.dcache.overall_mshr_miss_latency::total  33121634500                       # number of overall MSHR miss cycles
system.cpu0.dcache.demand_mshr_miss_rate::.cpu0.data     0.107597                       # mshr miss rate for demand accesses
system.cpu0.dcache.demand_mshr_miss_rate::total     0.107597                       # mshr miss rate for demand accesses
system.cpu0.dcache.overall_mshr_miss_rate::.cpu0.data     0.107597                       # mshr miss rate for overall accesses
system.cpu0.dcache.overall_mshr_miss_rate::total     0.107597                       # mshr miss rate for overall accesses
system.cpu0.dcache.demand_avg_mshr_miss_latency::.cpu0.data 80188.536656                       # average overall mshr miss latency
system.cpu0.dcache.demand_avg_mshr_miss_latency::total 80188.536656                       # average overall mshr miss latency
system.cpu0.dcache.overall_avg_mshr_miss_latency::.cpu0.data 80188.536656                       # average overall mshr miss latency
system.cpu0.dcache.overall_avg_mshr_miss_latency::total 80188.536656                       # average overall mshr miss latency
system.cpu0.dcache.replacements                413030                       # number of replacements
system.cpu0.dcache.ReadReq_hits::.cpu0.data       579670                       # number of ReadReq hits
system.cpu0.dcache.ReadReq_hits::total         579670                       # number of ReadReq hits
system.cpu0.dcache.ReadReq_misses::.cpu0.data        16402                       # number of ReadReq misses
system.cpu0.dcache.ReadReq_misses::total        16402                       # number of ReadReq misses
system.cpu0.dcache.ReadReq_miss_latency::.cpu0.data    416674000                       # number of ReadReq miss cycles
system.cpu0.dcache.ReadReq_miss_latency::total    416674000                       # number of ReadReq miss cycles
system.cpu0.dcache.ReadReq_accesses::.cpu0.data       596072                       # number of ReadReq accesses(hits+misses)
system.cpu0.dcache.ReadReq_accesses::total       596072                       # number of ReadReq accesses(hits+misses)
system.cpu0.dcache.ReadReq_miss_rate::.cpu0.data     0.027517                       # miss rate for ReadReq accesses
system.cpu0.dcache.ReadReq_miss_rate::total     0.027517                       # miss rate for ReadReq accesses
system.cpu0.dcache.ReadReq_avg_miss_latency::.cpu0.data 25403.853189                       # average ReadReq miss latency
system.cpu0.dcache.ReadReq_avg_miss_latency::total 25403.853189                       # average ReadReq miss latency
system.cpu0.dcache.ReadReq_mshr_hits::.cpu0.data          304                       # number of ReadReq MSHR hits
system.cpu0.dcache.ReadReq_mshr_hits::total          304                       # number of ReadReq MSHR hits
system.cpu0.dcache.ReadReq_mshr_misses::.cpu0.data        16098                       # number of ReadReq MSHR misses
system.cpu0.dcache.ReadReq_mshr_misses::total        16098                       # number of ReadReq MSHR misses
system.cpu0.dcache.ReadReq_mshr_miss_latency::.cpu0.data    387373000                       # number of ReadReq MSHR miss cycles
system.cpu0.dcache.ReadReq_mshr_miss_latency::total    387373000                       # number of ReadReq MSHR miss cycles
system.cpu0.dcache.ReadReq_mshr_miss_rate::.cpu0.data     0.027007                       # mshr miss rate for ReadReq accesses
system.cpu0.dcache.ReadReq_mshr_miss_rate::total     0.027007                       # mshr miss rate for ReadReq accesses
system.cpu0.dcache.ReadReq_avg_mshr_miss_latency::.cpu0.data 24063.424028                       # average ReadReq mshr miss latency
system.cpu0.dcache.ReadReq_avg_mshr_miss_latency::total 24063.424028                       # average ReadReq mshr miss latency
system.cpu0.dcache.WriteReq_hits::.cpu0.data      2451452                       # number of WriteReq hits
system.cpu0.dcache.WriteReq_hits::total       2451452                       # number of WriteReq hits
system.cpu0.dcache.WriteReq_misses::.cpu0.data       791302                       # number of WriteReq misses
system.cpu0.dcache.WriteReq_misses::total       791302                       # number of WriteReq misses
system.cpu0.dcache.WriteReq_miss_latency::.cpu0.data  66178479000                       # number of WriteReq miss cycles
system.cpu0.dcache.WriteReq_miss_latency::total  66178479000                       # number of WriteReq miss cycles
system.cpu0.dcache.WriteReq_accesses::.cpu0.data      3242754                       # number of WriteReq accesses(hits+misses)
system.cpu0.dcache.WriteReq_accesses::total      3242754                       # number of WriteReq accesses(hits+misses)
system.cpu0.dcache.WriteReq_miss_rate::.cpu0.data     0.244022                       # miss rate for WriteReq accesses
system.cpu0.dcache.WriteReq_miss_rate::total     0.244022                       # miss rate for WriteReq accesses
system.cpu0.dcache.WriteReq_avg_miss_latency::.cpu0.data 83632.391931                       # average WriteReq miss latency
system.cpu0.dcache.WriteReq_avg_miss_latency::total 83632.391931                       # average WriteReq miss latency
system.cpu0.dcache.WriteReq_mshr_hits::.cpu0.data       394353                       # number of WriteReq MSHR hits
system.cpu0.dcache.WriteReq_mshr_hits::total       394353                       # number of WriteReq MSHR hits
system.cpu0.dcache.WriteReq_mshr_misses::.cpu0.data       396949                       # number of WriteReq MSHR misses
system.cpu0.dcache.WriteReq_mshr_misses::total       396949                       # number of WriteReq MSHR misses
system.cpu0.dcache.WriteReq_mshr_miss_latency::.cpu0.data  32734261500                       # number of WriteReq MSHR miss cycles
system.cpu0.dcache.WriteReq_mshr_miss_latency::total  32734261500                       # number of WriteReq MSHR miss cycles
system.cpu0.dcache.WriteReq_mshr_miss_rate::.cpu0.data     0.122411                       # mshr miss rate for WriteReq accesses
system.cpu0.dcache.WriteReq_mshr_miss_rate::total     0.122411                       # mshr miss rate for WriteReq accesses
system.cpu0.dcache.WriteReq_avg_mshr_miss_latency::.cpu0.data 82464.652890                       # average WriteReq mshr miss latency
system.cpu0.dcache.WriteReq_avg_mshr_miss_latency::total 82464.652890                       # average WriteReq mshr miss latency
system.cpu0.dcache.power_state.pwrStateResidencyTicks::UNDEFINED  37595126000                       # Cumulative time (in ticks) in various power states
system.cpu0.dcache.tags.tagsinuse           15.999636                       # Cycle average of tags in use
system.cpu0.dcache.tags.total_refs            3444168                       # Total number of references to valid blocks.
system.cpu0.dcache.tags.sampled_refs           413046                       # Sample count of references to valid blocks.
system.cpu0.dcache.tags.avg_refs             8.338461                       # Average number of references to valid blocks.
system.cpu0.dcache.tags.warmup_cycle           178500                       # Cycle when the warmup percentage was hit.
system.cpu0.dcache.tags.occ_blocks::.cpu0.data    15.999636                       # Average occupied blocks per requestor
system.cpu0.dcache.tags.occ_percent::.cpu0.data     0.999977                       # Average percentage of cache occupancy
system.cpu0.dcache.tags.occ_percent::total     0.999977                       # Average percentage of cache occupancy
system.cpu0.dcache.tags.occ_task_id_blocks::1024           16                       # Occupied blocks per task id
system.cpu0.dcache.tags.age_task_id_blocks_1024::0           15                       # Occupied blocks per task id
system.cpu0.dcache.tags.age_task_id_blocks_1024::4            1                       # Occupied blocks per task id
system.cpu0.dcache.tags.occ_task_id_percent::1024            1                       # Percentage of cache occupancy per task id
system.cpu0.dcache.tags.tag_accesses         31123654                       # Number of tag accesses
system.cpu0.dcache.tags.data_accesses        31123654                       # Number of data accesses
system.cpu0.dcache.tags.power_state.pwrStateResidencyTicks::UNDEFINED  37595126000                       # Cumulative time (in ticks) in various power states
system.cpu0.power_state.pwrStateResidencyTicks::ON  37595126000                       # Cumulative time (in ticks) in various power states
system.cpu0.itb.walker.power_state.pwrStateResidencyTicks::UNDEFINED  37595126000                       # Cumulative time (in ticks) in various power states
system.cpu1.icache.demand_hits::.cpu1.inst      4690716                       # number of demand (read+write) hits
system.cpu1.icache.demand_hits::total         4690716                       # number of demand (read+write) hits
system.cpu1.icache.overall_hits::.cpu1.inst      4690716                       # number of overall hits
system.cpu1.icache.overall_hits::total        4690716                       # number of overall hits
system.cpu1.icache.demand_misses::.cpu1.inst        73481                       # number of demand (read+write) misses
system.cpu1.icache.demand_misses::total         73481                       # number of demand (read+write) misses
system.cpu1.icache.overall_misses::.cpu1.inst        73481                       # number of overall misses
system.cpu1.icache.overall_misses::total        73481                       # number of overall misses
system.cpu1.icache.demand_miss_latency::.cpu1.inst   1787033000                       # number of demand (read+write) miss cycles
system.cpu1.icache.demand_miss_latency::total   1787033000                       # number of demand (read+write) miss cycles
system.cpu1.icache.overall_miss_latency::.cpu1.inst   1787033000                       # number of overall miss cycles
system.cpu1.icache.overall_miss_latency::total   1787033000                       # number of overall miss cycles
system.cpu1.icache.demand_accesses::.cpu1.inst      4764197                       # number of demand (read+write) accesses
system.cpu1.icache.demand_accesses::total      4764197                       # number of demand (read+write) accesses
system.cpu1.icache.overall_accesses::.cpu1.inst      4764197                       # number of overall (read+write) accesses
system.cpu1.icache.overall_accesses::total      4764197                       # number of overall (read+write) accesses
system.cpu1.icache.demand_miss_rate::.cpu1.inst     0.015424                       # miss rate for demand accesses
system.cpu1.icache.demand_miss_rate::total     0.015424                       # miss rate for demand accesses
system.cpu1.icache.overall_miss_rate::.cpu1.inst     0.015424                       # miss rate for overall accesses
system.cpu1.icache.overall_miss_rate::total     0.015424                       # miss rate for overall accesses
system.cpu1.icache.demand_avg_miss_latency::.cpu1.inst 24319.660865                       # average overall miss latency
system.cpu1.icache.demand_avg_miss_latency::total 24319.660865                       # average overall miss latency
system.cpu1.icache.overall_avg_miss_latency::.cpu1.inst 24319.660865                       # average overall miss latency
system.cpu1.icache.overall_avg_miss_latency::total 24319.660865                       # average overall miss latency
system.cpu1.icache.blocked_cycles::no_mshrs            0                       # number of cycles access was blocked
system.cpu1.icache.blocked_cycles::no_targets            0                       # number of cycles access was blocked
system.cpu1.icache.blocked::no_mshrs                0                       # number of cycles access was blocked
system.cpu1.icache.blocked::no_targets              0                       # number of cycles access was blocked
system.cpu1.icache.avg_blocked_cycles::no_mshrs          nan                       # average number of cycles each access was blocked
system.cpu1.icache.avg_blocked_cycles::no_targets          nan                       # average number of cycles each access was blocked
system.cpu1.icache.writebacks::.writebacks        73465                       # number of writebacks
system.cpu1.icache.writebacks::total            73465                       # number of writebacks
system.cpu1.icache.demand_mshr_misses::.cpu1.inst        73481                       # number of demand (read+write) MSHR misses
system.cpu1.icache.demand_mshr_misses::total        73481                       # number of demand (read+write) MSHR misses
system.cpu1.icache.overall_mshr_misses::.cpu1.inst        73481                       # number of overall MSHR misses
system.cpu1.icache.overall_mshr_misses::total        73481                       # number of overall MSHR misses
system.cpu1.icache.demand_mshr_miss_latency::.cpu1.inst   1713552000                       # number of demand (read+write) MSHR miss cycles
system.cpu1.icache.demand_mshr_miss_latency::total   1713552000                       # number of demand (read+write) MSHR miss cycles
system.cpu1.icache.overall_mshr_miss_latency::.cpu1.inst   1713552000                       # number of overall MSHR miss cycles
system.cpu1.icache.overall_mshr_miss_latency::total   1713552000                       # number of overall MSHR miss cycles
system.cpu1.icache.demand_mshr_miss_rate::.cpu1.inst     0.015424                       # mshr miss rate for demand accesses
system.cpu1.icache.demand_mshr_miss_rate::total     0.015424                       # mshr miss rate for demand accesses
system.cpu1.icache.overall_mshr_miss_rate::.cpu1.inst     0.015424                       # mshr miss rate for overall accesses
system.cpu1.icache.overall_mshr_miss_rate::total     0.015424                       # mshr miss rate for overall accesses
system.cpu1.icache.demand_avg_mshr_miss_latency::.cpu1.inst 23319.660865                       # average overall mshr miss latency
system.cpu1.icache.demand_avg_mshr_miss_latency::total 23319.660865                       # average overall mshr miss latency
system.cpu1.icache.overall_avg_mshr_miss_latency::.cpu1.inst 23319.660865                       # average overall mshr miss latency
system.cpu1.icache.overall_avg_mshr_miss_latency::total 23319.660865                       # average overall mshr miss latency
system.cpu1.icache.replacements                 73465                       # number of replacements
system.cpu1.icache.ReadReq_hits::.cpu1.inst      4690716                       # number of ReadReq hits
system.cpu1.icache.ReadReq_hits::total        4690716                       # number of ReadReq hits
system.cpu1.icache.ReadReq_misses::.cpu1.inst        73481                       # number of ReadReq misses
system.cpu1.icache.ReadReq_misses::total        73481                       # number of ReadReq misses
system.cpu1.icache.ReadReq_miss_latency::.cpu1.inst   1787033000                       # number of ReadReq miss cycles
system.cpu1.icache.ReadReq_miss_latency::total   1787033000                       # number of ReadReq miss cycles
system.cpu1.icache.ReadReq_accesses::.cpu1.inst      4764197                       # number of ReadReq accesses(hits+misses)
system.cpu1.icache.ReadReq_accesses::total      4764197                       # number of ReadReq accesses(hits+misses)
system.cpu1.icache.ReadReq_miss_rate::.cpu1.inst     0.015424                       # miss rate for ReadReq accesses
system.cpu1.icache.ReadReq_miss_rate::total     0.015424                       # miss rate for ReadReq accesses
system.cpu1.icache.ReadReq_avg_miss_latency::.cpu1.inst 24319.660865                       # average ReadReq miss latency
system.cpu1.icache.ReadReq_avg_miss_latency::total 24319.660865                       # average ReadReq miss latency
system.cpu1.icache.ReadReq_mshr_misses::.cpu1.inst        73481                       # number of ReadReq MSHR misses
system.cpu1.icache.ReadReq_mshr_misses::total        73481                       # number of ReadReq MSHR misses
system.cpu1.icache.ReadReq_mshr_miss_latency::.cpu1.inst   1713552000                       # number of ReadReq MSHR miss cycles
system.cpu1.icache.ReadReq_mshr_miss_latency::total   1713552000                       # number of ReadReq MSHR miss cycles
system.cpu1.icache.ReadReq_mshr_miss_rate::.cpu1.inst     0.015424                       # mshr miss rate for ReadReq accesses
system.cpu1.icache.ReadReq_mshr_miss_rate::total     0.015424                       # mshr miss rate for ReadReq accesses
system.cpu1.icache.ReadReq_avg_mshr_miss_latency::.cpu1.inst 23319.660865                       # average ReadReq mshr miss latency
system.cpu1.icache.ReadReq_avg_mshr_miss_latency::total 23319.660865                       # average ReadReq mshr miss latency
system.cpu1.icache.power_state.pwrStateResidencyTicks::UNDEFINED  37595126000                       # Cumulative time (in ticks) in various power states
system.cpu1.icache.tags.tagsinuse           15.999605                       # Cycle average of tags in use
system.cpu1.icache.tags.total_refs            4764197                       # Total number of references to valid blocks.
system.cpu1.icache.tags.sampled_refs            73481                       # Sample count of references to valid blocks.
system.cpu1.icache.tags.avg_refs            64.835767                       # Average number of references to valid blocks.
system.cpu1.icache.tags.warmup_cycle            92500                       # Cycle when the warmup percentage was hit.
system.cpu1.icache.tags.occ_blocks::.cpu1.inst    15.999605                       # Average occupied blocks per requestor
system.cpu1.icache.tags.occ_percent::.cpu1.inst     0.999975                       # Average percentage of cache occupancy
system.cpu1.icache.tags.occ_percent::total     0.999975                       # Average percentage of cache occupancy
system.cpu1.icache.tags.occ_task_id_blocks::1024           16                       # Occupied blocks per task id
system.cpu1.icache.tags.age_task_id_blocks_1024::1           16                       # Occupied blocks per task id
system.cpu1.icache.tags.occ_task_id_percent::1024            1                       # Percentage of cache occupancy per task id
system.cpu1.icache.tags.tag_accesses         38187057                       # Number of tag accesses
system.cpu1.icache.tags.data_accesses        38187057                       # Number of data accesses
system.cpu1.icache.tags.power_state.pwrStateResidencyTicks::UNDEFINED  37595126000                       # Cumulative time (in ticks) in various power states
system.cpu1.dtb.walker.power_state.pwrStateResidencyTicks::UNDEFINED  37595126000                       # Cumulative time (in ticks) in various power states
system.cpu1.interrupts.clk_domain.clock          8000                       # Clock period in ticks
system.cpu1.itb_walker_cache.blocked_cycles::no_mshrs            0                       # number of cycles access was blocked
system.cpu1.itb_walker_cache.blocked_cycles::no_targets            0                       # number of cycles access was blocked
system.cpu1.itb_walker_cache.blocked::no_mshrs            0                       # number of cycles access was blocked
system.cpu1.itb_walker_cache.blocked::no_targets            0                       # number of cycles access was blocked
system.cpu1.itb_walker_cache.avg_blocked_cycles::no_mshrs          nan                       # average number of cycles each access was blocked
system.cpu1.itb_walker_cache.avg_blocked_cycles::no_targets          nan                       # average number of cycles each access was blocked
system.cpu1.itb_walker_cache.replacements            0                       # number of replacements
system.cpu1.itb_walker_cache.power_state.pwrStateResidencyTicks::UNDEFINED  37595126000                       # Cumulative time (in ticks) in various power states
system.cpu1.itb_walker_cache.tags.tagsinuse            0                       # Cycle average of tags in use
system.cpu1.itb_walker_cache.tags.total_refs            0                       # Total number of references to valid blocks.
system.cpu1.itb_walker_cache.tags.sampled_refs            0                       # Sample count of references to valid blocks.
system.cpu1.itb_walker_cache.tags.avg_refs          nan                       # Average number of references to valid blocks.
system.cpu1.itb_walker_cache.tags.warmup_cycle            0                       # Cycle when the warmup percentage was hit.
system.cpu1.itb_walker_cache.tags.tag_accesses            0                       # Number of tag accesses
system.cpu1.itb_walker_cache.tags.data_accesses            0                       # Number of data accesses
system.cpu1.itb_walker_cache.tags.power_state.pwrStateResidencyTicks::UNDEFINED  37595126000                       # Cumulative time (in ticks) in various power states
system.cpu1.dtb_walker_cache.blocked_cycles::no_mshrs            0                       # number of cycles access was blocked
system.cpu1.dtb_walker_cache.blocked_cycles::no_targets            0                       # number of cycles access was blocked
system.cpu1.dtb_walker_cache.blocked::no_mshrs            0                       # number of cycles access was blocked
system.cpu1.dtb_walker_cache.blocked::no_targets            0                       # number of cycles access was blocked
system.cpu1.dtb_walker_cache.avg_blocked_cycles::no_mshrs          nan                       # average number of cycles each access was blocked
system.cpu1.dtb_walker_cache.avg_blocked_cycles::no_targets          nan                       # average number of cycles each access was blocked
system.cpu1.dtb_walker_cache.replacements            0                       # number of replacements
system.cpu1.dtb_walker_cache.power_state.pwrStateResidencyTicks::UNDEFINED  37595126000                       # Cumulative time (in ticks) in various power states
system.cpu1.dtb_walker_cache.tags.tagsinuse            0                       # Cycle average of tags in use
system.cpu1.dtb_walker_cache.tags.total_refs            0                       # Total number of references to valid blocks.
system.cpu1.dtb_walker_cache.tags.sampled_refs            0                       # Sample count of references to valid blocks.
system.cpu1.dtb_walker_cache.tags.avg_refs          nan                       # Average number of references to valid blocks.
system.cpu1.dtb_walker_cache.tags.warmup_cycle            0                       # Cycle when the warmup percentage was hit.
system.cpu1.dtb_walker_cache.tags.tag_accesses            0                       # Number of tag accesses
system.cpu1.dtb_walker_cache.tags.data_accesses            0                       # Number of data accesses
system.cpu1.dtb_walker_cache.tags.power_state.pwrStateResidencyTicks::UNDEFINED  37595126000                       # Cumulative time (in ticks) in various power states
system.cpu1.dcache.demand_hits::.cpu1.data      1810268                       # number of demand (read+write) hits
system.cpu1.dcache.demand_hits::total         1810268                       # number of demand (read+write) hits
system.cpu1.dcache.overall_hits::.cpu1.data      1810325                       # number of overall hits
system.cpu1.dcache.overall_hits::total        1810325                       # number of overall hits
system.cpu1.dcache.demand_misses::.cpu1.data       290554                       # number of demand (read+write) misses
system.cpu1.dcache.demand_misses::total        290554                       # number of demand (read+write) misses
system.cpu1.dcache.overall_misses::.cpu1.data       290611                       # number of overall misses
system.cpu1.dcache.overall_misses::total       290611                       # number of overall misses
system.cpu1.dcache.demand_miss_latency::.cpu1.data  22297428000                       # number of demand (read+write) miss cycles
system.cpu1.dcache.demand_miss_latency::total  22297428000                       # number of demand (read+write) miss cycles
system.cpu1.dcache.overall_miss_latency::.cpu1.data  22297428000                       # number of overall miss cycles
system.cpu1.dcache.overall_miss_latency::total  22297428000                       # number of overall miss cycles
system.cpu1.dcache.demand_accesses::.cpu1.data      2100822                       # number of demand (read+write) accesses
system.cpu1.dcache.demand_accesses::total      2100822                       # number of demand (read+write) accesses
system.cpu1.dcache.overall_accesses::.cpu1.data      2100936                       # number of overall (read+write) accesses
system.cpu1.dcache.overall_accesses::total      2100936                       # number of overall (read+write) accesses
system.cpu1.dcache.demand_miss_rate::.cpu1.data     0.138305                       # miss rate for demand accesses
system.cpu1.dcache.demand_miss_rate::total     0.138305                       # miss rate for demand accesses
system.cpu1.dcache.overall_miss_rate::.cpu1.data     0.138325                       # miss rate for overall accesses
system.cpu1.dcache.overall_miss_rate::total     0.138325                       # miss rate for overall accesses
system.cpu1.dcache.demand_avg_miss_latency::.cpu1.data 76741.080832                       # average overall miss latency
system.cpu1.dcache.demand_avg_miss_latency::total 76741.080832                       # average overall miss latency
system.cpu1.dcache.overall_avg_miss_latency::.cpu1.data 76726.028953                       # average overall miss latency
system.cpu1.dcache.overall_avg_miss_latency::total 76726.028953                       # average overall miss latency
system.cpu1.dcache.blocked_cycles::no_mshrs            0                       # number of cycles access was blocked
system.cpu1.dcache.blocked_cycles::no_targets            0                       # number of cycles access was blocked
system.cpu1.dcache.blocked::no_mshrs                0                       # number of cycles access was blocked
system.cpu1.dcache.blocked::no_targets              0                       # number of cycles access was blocked
system.cpu1.dcache.avg_blocked_cycles::no_mshrs          nan                       # average number of cycles each access was blocked
system.cpu1.dcache.avg_blocked_cycles::no_targets          nan                       # average number of cycles each access was blocked
system.cpu1.dcache.writebacks::.writebacks       133920                       # number of writebacks
system.cpu1.dcache.writebacks::total           133920                       # number of writebacks
system.cpu1.dcache.demand_mshr_hits::.cpu1.data        10235                       # number of demand (read+write) MSHR hits
system.cpu1.dcache.demand_mshr_hits::total        10235                       # number of demand (read+write) MSHR hits
system.cpu1.dcache.overall_mshr_hits::.cpu1.data        10235                       # number of overall MSHR hits
system.cpu1.dcache.overall_mshr_hits::total        10235                       # number of overall MSHR hits
system.cpu1.dcache.demand_mshr_misses::.cpu1.data       280319                       # number of demand (read+write) MSHR misses
system.cpu1.dcache.demand_mshr_misses::total       280319                       # number of demand (read+write) MSHR misses
system.cpu1.dcache.overall_mshr_misses::.cpu1.data       280376                       # number of overall MSHR misses
system.cpu1.dcache.overall_mshr_misses::total       280376                       # number of overall MSHR misses
system.cpu1.dcache.demand_mshr_miss_latency::.cpu1.data  21308531500                       # number of demand (read+write) MSHR miss cycles
system.cpu1.dcache.demand_mshr_miss_latency::total  21308531500                       # number of demand (read+write) MSHR miss cycles
system.cpu1.dcache.overall_mshr_miss_latency::.cpu1.data  21310739500                       # number of overall MSHR miss cycles
system.cpu1.dcache.overall_mshr_miss_latency::total  21310739500                       # number of overall MSHR miss cycles
system.cpu1.dcache.demand_mshr_miss_rate::.cpu1.data     0.133433                       # mshr miss rate for demand accesses
system.cpu1.dcache.demand_mshr_miss_rate::total     0.133433                       # mshr miss rate for demand accesses
system.cpu1.dcache.overall_mshr_miss_rate::.cpu1.data     0.133453                       # mshr miss rate for overall accesses
system.cpu1.dcache.overall_mshr_miss_rate::total     0.133453                       # mshr miss rate for overall accesses
system.cpu1.dcache.demand_avg_mshr_miss_latency::.cpu1.data 76015.295075                       # average overall mshr miss latency
system.cpu1.dcache.demand_avg_mshr_miss_latency::total 76015.295075                       # average overall mshr miss latency
system.cpu1.dcache.overall_avg_mshr_miss_latency::.cpu1.data 76007.716424                       # average overall mshr miss latency
system.cpu1.dcache.overall_avg_mshr_miss_latency::total 76007.716424                       # average overall mshr miss latency
system.cpu1.dcache.replacements                280360                       # number of replacements
system.cpu1.dcache.ReadReq_hits::.cpu1.data      1192711                       # number of ReadReq hits
system.cpu1.dcache.ReadReq_hits::total        1192711                       # number of ReadReq hits
system.cpu1.dcache.ReadReq_misses::.cpu1.data       269899                       # number of ReadReq misses
system.cpu1.dcache.ReadReq_misses::total       269899                       # number of ReadReq misses
system.cpu1.dcache.ReadReq_miss_latency::.cpu1.data  20802596000                       # number of ReadReq miss cycles
system.cpu1.dcache.ReadReq_miss_latency::total  20802596000                       # number of ReadReq miss cycles
system.cpu1.dcache.ReadReq_accesses::.cpu1.data      1462610                       # number of ReadReq accesses(hits+misses)
system.cpu1.dcache.ReadReq_accesses::total      1462610                       # number of ReadReq accesses(hits+misses)
system.cpu1.dcache.ReadReq_miss_rate::.cpu1.data     0.184532                       # miss rate for ReadReq accesses
system.cpu1.dcache.ReadReq_miss_rate::total     0.184532                       # miss rate for ReadReq accesses
system.cpu1.dcache.ReadReq_avg_miss_latency::.cpu1.data 77075.483792                       # average ReadReq miss latency
system.cpu1.dcache.ReadReq_avg_miss_latency::total 77075.483792                       # average ReadReq miss latency
system.cpu1.dcache.ReadReq_mshr_hits::.cpu1.data         1468                       # number of ReadReq MSHR hits
system.cpu1.dcache.ReadReq_mshr_hits::total         1468                       # number of ReadReq MSHR hits
system.cpu1.dcache.ReadReq_mshr_misses::.cpu1.data       268431                       # number of ReadReq MSHR misses
system.cpu1.dcache.ReadReq_mshr_misses::total       268431                       # number of ReadReq MSHR misses
system.cpu1.dcache.ReadReq_mshr_miss_latency::.cpu1.data  20442708500                       # number of ReadReq MSHR miss cycles
system.cpu1.dcache.ReadReq_mshr_miss_latency::total  20442708500                       # number of ReadReq MSHR miss cycles
system.cpu1.dcache.ReadReq_mshr_miss_rate::.cpu1.data     0.183529                       # mshr miss rate for ReadReq accesses
system.cpu1.dcache.ReadReq_mshr_miss_rate::total     0.183529                       # mshr miss rate for ReadReq accesses
system.cpu1.dcache.ReadReq_avg_mshr_miss_latency::.cpu1.data 76156.287836                       # average ReadReq mshr miss latency
system.cpu1.dcache.ReadReq_avg_mshr_miss_latency::total 76156.287836                       # average ReadReq mshr miss latency
system.cpu1.dcache.WriteReq_hits::.cpu1.data       617557                       # number of WriteReq hits
system.cpu1.dcache.WriteReq_hits::total        617557                       # number of WriteReq hits
system.cpu1.dcache.WriteReq_misses::.cpu1.data        20655                       # number of WriteReq misses
system.cpu1.dcache.WriteReq_misses::total        20655                       # number of WriteReq misses
system.cpu1.dcache.WriteReq_miss_latency::.cpu1.data   1494832000                       # number of WriteReq miss cycles
system.cpu1.dcache.WriteReq_miss_latency::total   1494832000                       # number of WriteReq miss cycles
system.cpu1.dcache.WriteReq_accesses::.cpu1.data       638212                       # number of WriteReq accesses(hits+misses)
system.cpu1.dcache.WriteReq_accesses::total       638212                       # number of WriteReq accesses(hits+misses)
[...]
system.mem_ctrls.bytesPerActivate::stdev   419.046801                       # Bytes accessed per row activation
system.mem_ctrls.bytesPerActivate::0-127        31177     24.54%     24.54% # Bytes accessed per row activation
system.mem_ctrls.bytesPerActivate::128-255        12809     10.08%     34.62% # Bytes accessed per row activation
system.mem_ctrls.bytesPerActivate::256-383         7919      6.23%     40.85% # Bytes accessed per row activation
system.mem_ctrls.bytesPerActivate::384-511         6758      5.32%     46.17% # Bytes accessed per row activation
system.mem_ctrls.bytesPerActivate::512-639         5071      3.99%     50.16% # Bytes accessed per row activation
system.mem_ctrls.bytesPerActivate::640-767         4942      3.89%     54.05% # Bytes accessed per row activation
system.mem_ctrls.bytesPerActivate::768-895         3713      2.92%     56.98% # Bytes accessed per row activation
system.mem_ctrls.bytesPerActivate::896-1023         3345      2.63%     59.61% # Bytes accessed per row activation
system.mem_ctrls.bytesPerActivate::1024-1151        51318     40.39%    100.00% # Bytes accessed per row activation
system.mem_ctrls.bytesPerActivate::total       127052                       # Bytes accessed per row activation
system.mem_ctrls.rdPerTurnAround::samples        30900                       # Reads before turning the bus around for writes
system.mem_ctrls.rdPerTurnAround::mean      21.161618                       # Reads before turning the bus around for writes
system.mem_ctrls.rdPerTurnAround::gmean     20.337451                       # Reads before turning the bus around for writes
system.mem_ctrls.rdPerTurnAround::stdev      8.170306                       # Reads before turning the bus around for writes
system.mem_ctrls.rdPerTurnAround::0-31          30128     97.50%     97.50% # Reads before turning the bus around for writes
system.mem_ctrls.rdPerTurnAround::32-63           688      2.23%     99.73% # Reads before turning the bus around for writes
system.mem_ctrls.rdPerTurnAround::64-95            51      0.17%     99.89% # Reads before turning the bus around for writes
system.mem_ctrls.rdPerTurnAround::96-127           16      0.05%     99.94% # Reads before turning the bus around for writes
system.mem_ctrls.rdPerTurnAround::128-159            8      0.03%     99.97% # Reads before turning the bus around for writes
system.mem_ctrls.rdPerTurnAround::160-191            2      0.01%     99.98% # Reads before turning the bus around for writes
system.mem_ctrls.rdPerTurnAround::192-223            4      0.01%     99.99% # Reads before turning the bus around for writes
system.mem_ctrls.rdPerTurnAround::224-255            1      0.00%     99.99% # Reads before turning the bus around for writes
system.mem_ctrls.rdPerTurnAround::256-287            1      0.00%    100.00% # Reads before turning the bus around for writes
system.mem_ctrls.rdPerTurnAround::672-703            1      0.00%    100.00% # Reads before turning the bus around for writes
system.mem_ctrls.rdPerTurnAround::total         30900                       # Reads before turning the bus around for writes
system.mem_ctrls.wrPerTurnAround::samples        30900                       # Writes before turning the bus around for reads
system.mem_ctrls.wrPerTurnAround::mean      16.104595                       # Writes before turning the bus around for reads
system.mem_ctrls.wrPerTurnAround::gmean     16.096959                       # Writes before turning the bus around for reads
system.mem_ctrls.wrPerTurnAround::stdev      0.523377                       # Writes before turning the bus around for reads
system.mem_ctrls.wrPerTurnAround::16            29521     95.54%     95.54% # Writes before turning the bus around for reads
system.mem_ctrls.wrPerTurnAround::17              308      1.00%     96.53% # Writes before turning the bus around for reads
system.mem_ctrls.wrPerTurnAround::18              420      1.36%     97.89% # Writes before turning the bus around for reads
system.mem_ctrls.wrPerTurnAround::19              539      1.74%     99.64% # Writes before turning the bus around for reads
system.mem_ctrls.wrPerTurnAround::20               93      0.30%     99.94% # Writes before turning the bus around for reads
system.mem_ctrls.wrPerTurnAround::21               19      0.06%    100.00% # Writes before turning the bus around for reads
system.mem_ctrls.wrPerTurnAround::total         30900                       # Writes before turning the bus around for reads
system.mem_ctrls.bytesReadDRAM               41849984                       # Total number of bytes read from DRAM
system.mem_ctrls.bytesReadWrQ                   11136                       # Total number of bytes read from write queue
system.mem_ctrls.bytesWritten                31848448                       # Total number of bytes written to DRAM
system.mem_ctrls.bytesReadSys                41861120                       # Total read bytes from the system interface side
system.mem_ctrls.bytesWrittenSys             31850752                       # Total written bytes from the system interface side
system.mem_ctrls.avgRdBW                      1113.18                       # Average DRAM read bandwidth in MiByte/s
system.mem_ctrls.avgWrBW                       847.14                       # Average achieved write bandwidth in MiByte/s
system.mem_ctrls.avgRdBWSys                   1113.47                       # Average system read bandwidth in MiByte/s
system.mem_ctrls.avgWrBWSys                    847.20                       # Average system write bandwidth in MiByte/s
system.mem_ctrls.peakBW                      12800.00                       # Theoretical peak bandwidth in MiByte/s
system.mem_ctrls.busUtil                        15.31                       # Data bus utilization in percentage
system.mem_ctrls.busUtilRead                     8.70                       # Data bus utilization in percentage for reads
system.mem_ctrls.busUtilWrite                    6.62                       # Data bus utilization in percentage for writes
system.mem_ctrls.totGap                   37595111000                       # Total gap between requests
system.mem_ctrls.avgGap                      32641.79                       # Average gap between requests
system.mem_ctrls.masterReadBytes::.cpu0.inst        98048                       # Per-master bytes read from memory
system.mem_ctrls.masterReadBytes::.cpu0.data     25243840                       # Per-master bytes read from memory
system.mem_ctrls.masterReadBytes::.cpu1.inst       650432                       # Per-master bytes read from memory
system.mem_ctrls.masterReadBytes::.cpu1.data     15857664                       # Per-master bytes read from memory
system.mem_ctrls.masterWriteBytes::.writebacks     31848448                       # Per-master bytes write to memory
system.mem_ctrls.masterReadRate::.cpu0.inst 2607997.643098735716                       # Per-master bytes read from memory rate (Bytes/sec)
system.mem_ctrls.masterReadRate::.cpu0.data 671465763.939719200134                       # Per-master bytes read from memory rate (Bytes/sec)
system.mem_ctrls.masterReadRate::.cpu1.inst 17300966.087997682393                       # Per-master bytes read from memory rate (Bytes/sec)
system.mem_ctrls.masterReadRate::.cpu1.data 421801060.062945425510                       # Per-master bytes read from memory rate (Bytes/sec)
system.mem_ctrls.masterWriteRate::.writebacks 847143004.654379963875                       # Per-master bytes write to memory rate (Bytes/sec)
system.mem_ctrls.masterReadAccesses::.cpu0.inst         1532                       # Per-master read serviced memory accesses
system.mem_ctrls.masterReadAccesses::.cpu0.data       394442                       # Per-master read serviced memory accesses
system.mem_ctrls.masterReadAccesses::.cpu1.inst        10163                       # Per-master read serviced memory accesses
system.mem_ctrls.masterReadAccesses::.cpu1.data       247943                       # Per-master read serviced memory accesses
system.mem_ctrls.masterWriteAccesses::.writebacks       497668                       # Per-master write serviced memory accesses
system.mem_ctrls.masterReadTotalLat::.cpu0.inst     46995250                       # Per-master read total memory access latency
system.mem_ctrls.masterReadTotalLat::.cpu0.data  11994846250                       # Per-master read total memory access latency
system.mem_ctrls.masterReadTotalLat::.cpu1.inst    355007500                       # Per-master read total memory access latency
system.mem_ctrls.masterReadTotalLat::.cpu1.data   7787218750                       # Per-master read total memory access latency
system.mem_ctrls.masterWriteTotalLat::.writebacks 936492044750                       # Per-master write total memory access latency
system.mem_ctrls.masterReadAvgLat::.cpu0.inst     30675.75                       # Per-master read average memory access latency
system.mem_ctrls.masterReadAvgLat::.cpu0.data     30409.66                       # Per-master read average memory access latency
system.mem_ctrls.masterReadAvgLat::.cpu1.inst     34931.37                       # Per-master read average memory access latency
system.mem_ctrls.masterReadAvgLat::.cpu1.data     31407.29                       # Per-master read average memory access latency
system.mem_ctrls.masterWriteAvgLat::.writebacks   1881760.62                       # Per-master write average memory access latency
system.mem_ctrls.pageHitRate                    88.96                       # Row buffer hit rate, read and write combined
system.mem_ctrls.rank1.actEnergy            393649620                       # Energy for activate commands per rank (pJ)
system.mem_ctrls.rank1.preEnergy            209225940                       # Energy for precharge commands per rank (pJ)
system.mem_ctrls.rank1.readEnergy          2059076040                       # Energy for read commands per rank (pJ)
system.mem_ctrls.rank1.writeEnergy         1231690320                       # Energy for write commands per rank (pJ)
system.mem_ctrls.rank1.refreshEnergy     2967481920.000000                       # Energy for refresh commands per rank (pJ)
system.mem_ctrls.rank1.actBackEnergy      15292070010                       # Energy for active background per rank (pJ)
system.mem_ctrls.rank1.preBackEnergy       1558995840                       # Energy for precharge background per rank (pJ)
system.mem_ctrls.rank1.actPowerDownEnergy            0                       # Energy for active power-down per rank (pJ)
system.mem_ctrls.rank1.prePowerDownEnergy            0                       # Energy for precharge power-down per rank (pJ)
system.mem_ctrls.rank1.selfRefreshEnergy            0                       # Energy for self refresh per rank (pJ)
system.mem_ctrls.rank1.totalEnergy        23712189690                       # Total energy per rank (pJ)
system.mem_ctrls.rank1.averagePower        630.725102                       # Core power per rank (mW)
system.mem_ctrls.rank1.totalIdleTime                0                       # Total Idle time Per DRAM Rank
system.mem_ctrls.rank1.memoryStateTime::IDLE   3822826500                       # Time in different power states
system.mem_ctrls.rank1.memoryStateTime::REF   1255280000                       # Time in different power states
system.mem_ctrls.rank1.memoryStateTime::SREF            0                       # Time in different power states
system.mem_ctrls.rank1.memoryStateTime::PRE_PDN            0                       # Time in different power states
system.mem_ctrls.rank1.memoryStateTime::ACT  32517019500                       # Time in different power states
system.mem_ctrls.rank1.memoryStateTime::ACT_PDN            0                       # Time in different power states
system.mem_ctrls.rank0.actEnergy            513523080                       # Energy for activate commands per rank (pJ)
system.mem_ctrls.rank0.preEnergy            272936400                       # Energy for precharge commands per rank (pJ)
system.mem_ctrls.rank0.readEnergy          2609812800                       # Energy for read commands per rank (pJ)
system.mem_ctrls.rank0.writeEnergy         1365948720                       # Energy for write commands per rank (pJ)
system.mem_ctrls.rank0.refreshEnergy     2967481920.000000                       # Energy for refresh commands per rank (pJ)
system.mem_ctrls.rank0.actBackEnergy      16201510710                       # Energy for active background per rank (pJ)
system.mem_ctrls.rank0.preBackEnergy        793151040                       # Energy for precharge background per rank (pJ)
system.mem_ctrls.rank0.actPowerDownEnergy            0                       # Energy for active power-down per rank (pJ)
system.mem_ctrls.rank0.prePowerDownEnergy            0                       # Energy for precharge power-down per rank (pJ)
system.mem_ctrls.rank0.selfRefreshEnergy            0                       # Energy for self refresh per rank (pJ)
system.mem_ctrls.rank0.totalEnergy        24724364670                       # Total energy per rank (pJ)
system.mem_ctrls.rank0.averagePower        657.648140                       # Core power per rank (mW)
system.mem_ctrls.rank0.totalIdleTime                0                       # Total Idle time Per DRAM Rank
system.mem_ctrls.rank0.memoryStateTime::IDLE   1790634250                       # Time in different power states
system.mem_ctrls.rank0.memoryStateTime::REF   1255280000                       # Time in different power states
system.mem_ctrls.rank0.memoryStateTime::SREF            0                       # Time in different power states
system.mem_ctrls.rank0.memoryStateTime::PRE_PDN            0                       # Time in different power states
system.mem_ctrls.rank0.memoryStateTime::ACT  34549211750                       # Time in different power states
system.mem_ctrls.rank0.memoryStateTime::ACT_PDN            0                       # Time in different power states
system.mem_ctrls.power_state.pwrStateResidencyTicks::UNDEFINED  37595126000                       # Cumulative time (in ticks) in various power states
system.cpu_clk_domain.clock                       500                       # Clock period in ticks
system.tol2bus.trans_dist::ReadResp            366956                       # Transaction distribution
system.tol2bus.trans_dist::WritebackDirty      1030659                       # Transaction distribution
system.tol2bus.trans_dist::WritebackClean        82338                       # Transaction distribution
system.tol2bus.trans_dist::CleanEvict          321642                       # Transaction distribution
system.tol2bus.trans_dist::ReadExReq           408837                       # Transaction distribution
system.tol2bus.trans_dist::ReadExResp          408836                       # Transaction distribution
system.tol2bus.trans_dist::ReadCleanReq         82370                       # Transaction distribution
system.tol2bus.trans_dist::ReadSharedReq       284586                       # Transaction distribution
system.tol2bus.pkt_count_system.cpu0.icache.mem_side::system.l2.cpu_side        26651                       # Packet count per connected master and slave (bytes)
system.tol2bus.pkt_count_system.cpu0.dcache.mem_side::system.l2.cpu_side      1239123                       # Packet count per connected master and slave (bytes)
system.tol2bus.pkt_count_system.cpu1.icache.mem_side::system.l2.cpu_side       220427                       # Packet count per connected master and slave (bytes)
system.tol2bus.pkt_count_system.cpu1.dcache.mem_side::system.l2.cpu_side       841112                       # Packet count per connected master and slave (bytes)
system.tol2bus.pkt_count::total               2327313                       # Packet count per connected master and slave (bytes)
system.tol2bus.pkt_size_system.cpu0.icache.mem_side::system.l2.cpu_side      1136768                       # Cumulative packet size per connected master and slave (bytes)
system.tol2bus.pkt_size_system.cpu0.dcache.mem_side::system.l2.cpu_side     51975488                       # Cumulative packet size per connected master and slave (bytes)
system.tol2bus.pkt_size_system.cpu1.icache.mem_side::system.l2.cpu_side      9404544                       # Cumulative packet size per connected master and slave (bytes)
system.tol2bus.pkt_size_system.cpu1.dcache.mem_side::system.l2.cpu_side     26514944                       # Cumulative packet size per connected master and slave (bytes)
system.tol2bus.pkt_size::total               89031744                       # Cumulative packet size per connected master and slave (bytes)
system.tol2bus.snoops                          658911                       # Total snoops (count)
system.tol2bus.snoopTraffic                  31850752                       # Total snoop traffic (bytes)
system.tol2bus.snoop_fanout::samples          1434704                       # Request fanout histogram
system.tol2bus.snoop_fanout::mean            0.004234                       # Request fanout histogram
system.tol2bus.snoop_fanout::stdev           0.064934                       # Request fanout histogram
system.tol2bus.snoop_fanout::underflows             0      0.00%      0.00% # Request fanout histogram
system.tol2bus.snoop_fanout::0                1428629     99.58%     99.58% # Request fanout histogram
system.tol2bus.snoop_fanout::1                   6075      0.42%    100.00% # Request fanout histogram
system.tol2bus.snoop_fanout::2                      0      0.00%    100.00% # Request fanout histogram
system.tol2bus.snoop_fanout::3                      0      0.00%    100.00% # Request fanout histogram
system.tol2bus.snoop_fanout::4                      0      0.00%    100.00% # Request fanout histogram
system.tol2bus.snoop_fanout::5                      0      0.00%    100.00% # Request fanout histogram
system.tol2bus.snoop_fanout::6                      0      0.00%    100.00% # Request fanout histogram
system.tol2bus.snoop_fanout::7                      0      0.00%    100.00% # Request fanout histogram
system.tol2bus.snoop_fanout::8                      0      0.00%    100.00% # Request fanout histogram
system.tol2bus.snoop_fanout::overflows              0      0.00%    100.00% # Request fanout histogram
system.tol2bus.snoop_fanout::min_value              0                       # Request fanout histogram
system.tol2bus.snoop_fanout::max_value              1                       # Request fanout histogram
system.tol2bus.snoop_fanout::total            1434704                       # Request fanout histogram
system.tol2bus.reqLayer0.occupancy         1391089500                       # Layer occupancy (ticks)
system.tol2bus.reqLayer0.utilization              3.7                       # Layer utilization (%)
system.tol2bus.respLayer5.occupancy         420614399                       # Layer occupancy (ticks)
system.tol2bus.respLayer5.utilization             1.1                       # Layer utilization (%)
system.tol2bus.respLayer4.occupancy         110249444                       # Layer occupancy (ticks)
system.tol2bus.respLayer4.utilization             0.3                       # Layer utilization (%)
system.tol2bus.respLayer1.occupancy         619899338                       # Layer occupancy (ticks)
system.tol2bus.respLayer1.utilization             1.6                       # Layer utilization (%)
system.tol2bus.respLayer0.occupancy          13342482                       # Layer occupancy (ticks)
system.tol2bus.respLayer0.utilization             0.0                       # Layer utilization (%)
system.tol2bus.power_state.pwrStateResidencyTicks::UNDEFINED  37595126000                       # Cumulative time (in ticks) in various power states

---------- End Simulation Statistics   ----------
