
---------- Begin Simulation Statistics ----------
final_tick                                14024188500                       # Number of ticks from beginning of simulation (restored from checkpoints and never reset)
host_inst_rate                                 248379                       # Simulator instruction rate (inst/s)
host_mem_usage                                4436624                       # Number of bytes of host memory used
host_op_rate                                   417475                       # Simulator op (including micro ops) rate (op/s)
host_seconds                                    59.20                       # Real time elapsed on the host
host_tick_rate                              236903248                       # Simulator tick rate (ticks/s)
sim_freq                                 1000000000000                       # Frequency of simulated ticks
sim_insts                                    14703498                       # Number of instructions simulated
sim_ops                                      24713657                       # Number of ops (including micro ops) simulated
sim_seconds                                  0.014024                       # Number of seconds simulated
sim_ticks                                 14024188500                       # Number of ticks simulated
system.cpu0.branchPred.BTBCorrect                   0                       # Number of correct BTB predictions (this stat may not work properly.
system.cpu0.branchPred.BTBHitPct                  nan                       # BTB Hit Percentage
system.cpu0.branchPred.BTBHits                      0                       # Number of BTB hits
system.cpu0.branchPred.BTBLookups                   0                       # Number of BTB lookups
system.cpu0.branchPred.RASInCorrect                 0                       # Number of incorrect RAS predictions.
system.cpu0.branchPred.condIncorrect               43                       # Number of conditional branches incorrect
system.cpu0.branchPred.condPredicted               90                       # Number of conditional branches predicted
system.cpu0.branchPred.indirectHits                 0                       # Number of indirect target hits.
system.cpu0.branchPred.indirectLookups             24                       # Number of indirect predictor lookups.
system.cpu0.branchPred.indirectMisses              24                       # Number of indirect misses.
system.cpu0.branchPred.lookups                     90                       # Number of BP lookups
system.cpu0.branchPred.usedRAS                      0                       # Number of times the RAS was used to get a target.
system.cpu0.branchPredindirectMispredicted           15                       # Number of mispredicted indirect branches.
system.cpu0.committedInsts                   10000000                       # Number of instructions committed
system.cpu0.committedOps                     16927931                       # Number of ops (including micro ops) committed
system.cpu0.cpi                              2.804838                       # CPI: cycles per instruction
system.cpu0.discardedOps                      2871997                       # Number of ops (including micro ops) which were discarded before commit
system.cpu0.dtb.rdAccesses                    4157454                       # TLB accesses on read requests
system.cpu0.dtb.rdMisses                         2426                       # TLB misses on read requests
system.cpu0.dtb.wrAccesses                    2003180                       # TLB accesses on write requests
system.cpu0.dtb.wrMisses                         1714                       # TLB misses on write requests
system.cpu0.fetch2.amo_instructions                 0                       # Number of memory atomic instructions successfully decoded
system.cpu0.fetch2.fp_instructions                  0                       # Number of floating point instructions successfully decoded
system.cpu0.fetch2.int_instructions                 8                       # Number of integer instructions successfully decoded
system.cpu0.fetch2.load_instructions                0                       # Number of memory load instructions successfully decoded
system.cpu0.fetch2.store_instructions               0                       # Number of memory store instructions successfully decoded
system.cpu0.fetch2.vec_instructions                 0                       # Number of SIMD instructions successfully decoded
system.cpu0.idleCycles                        5120544                       # Total number of cycles that the object has spent stopped
system.cpu0.ipc                              0.356527                       # IPC: instructions per cycle
system.cpu0.itb.rdAccesses                          0                       # TLB accesses on read requests
system.cpu0.itb.rdMisses                            0                       # TLB misses on read requests
system.cpu0.itb.wrAccesses                    2443226                       # TLB accesses on write requests
system.cpu0.itb.wrMisses                          212                       # TLB misses on write requests
system.cpu0.numCycles                        28048377                       # number of cpu cycles simulated
system.cpu0.numFetchSuspends                        0                       # Number of times Execute suspended instruction fetching
system.cpu0.numWorkItemsCompleted                   0                       # number of work items this cpu completed
system.cpu0.numWorkItemsStarted                     0                       # number of work items this cpu started
system.cpu0.op_class_0::No_OpClass              31838      0.19%      0.19% # Class of committed instruction
system.cpu0.op_class_0::IntAlu               11081465     65.46%     65.65% # Class of committed instruction
system.cpu0.op_class_0::IntMult                    77      0.00%     65.65% # Class of committed instruction
system.cpu0.op_class_0::IntDiv                   1369      0.01%     65.66% # Class of committed instruction
system.cpu0.op_class_0::FloatAdd                  223      0.00%     65.66% # Class of committed instruction
system.cpu0.op_class_0::FloatCmp                    0      0.00%     65.66% # Class of committed instruction
system.cpu0.op_class_0::FloatCvt                  176      0.00%     65.66% # Class of committed instruction
system.cpu0.op_class_0::FloatMult                   0      0.00%     65.66% # Class of committed instruction
system.cpu0.op_class_0::FloatMultAcc                0      0.00%     65.66% # Class of committed instruction
system.cpu0.op_class_0::FloatDiv                    0      0.00%     65.66% # Class of committed instruction
system.cpu0.op_class_0::FloatMisc                   0      0.00%     65.66% # Class of committed instruction
system.cpu0.op_class_0::FloatSqrt                   0      0.00%     65.66% # Class of committed instruction
system.cpu0.op_class_0::SimdAdd                   952      0.01%     65.67% # Class of committed instruction
system.cpu0.op_class_0::SimdAddAcc                  0      0.00%     65.67% # Class of committed instruction
system.cpu0.op_class_0::SimdAlu                   988      0.01%     65.67% # Class of committed instruction
system.cpu0.op_class_0::SimdCmp                     0      0.00%     65.67% # Class of committed instruction
system.cpu0.op_class_0::SimdCvt                  1344      0.01%     65.68% # Class of committed instruction
system.cpu0.op_class_0::SimdMisc                  912      0.01%     65.69% # Class of committed instruction
system.cpu0.op_class_0::SimdMult                    0      0.00%     65.69% # Class of committed instruction
system.cpu0.op_class_0::SimdMultAcc                 0      0.00%     65.69% # Class of committed instruction
system.cpu0.op_class_0::SimdShift                 333      0.00%     65.69% # Class of committed instruction
system.cpu0.op_class_0::SimdShiftAcc                0      0.00%     65.69% # Class of committed instruction
system.cpu0.op_class_0::SimdDiv                     0      0.00%     65.69% # Class of committed instruction
system.cpu0.op_class_0::SimdSqrt                    0      0.00%     65.69% # Class of committed instruction
system.cpu0.op_class_0::SimdFloatAdd                0      0.00%     65.69% # Class of committed instruction
system.cpu0.op_class_0::SimdFloatAlu                0      0.00%     65.69% # Class of committed instruction
system.cpu0.op_class_0::SimdFloatCmp                0      0.00%     65.69% # Class of committed instruction
system.cpu0.op_class_0::SimdFloatCvt                0      0.00%     65.69% # Class of committed instruction
system.cpu0.op_class_0::SimdFloatDiv                0      0.00%     65.69% # Class of committed instruction
system.cpu0.op_class_0::SimdFloatMisc               0      0.00%     65.69% # Class of committed instruction
system.cpu0.op_class_0::SimdFloatMult               0      0.00%     65.69% # Class of committed instruction
system.cpu0.op_class_0::SimdFloatMultAcc            0      0.00%     65.69% # Class of committed instruction
system.cpu0.op_class_0::SimdFloatSqrt               0      0.00%     65.69% # Class of committed instruction
system.cpu0.op_class_0::SimdReduceAdd               0      0.00%     65.69% # Class of committed instruction
system.cpu0.op_class_0::SimdReduceAlu               0      0.00%     65.69% # Class of committed instruction
system.cpu0.op_class_0::SimdReduceCmp               0      0.00%     65.69% # Class of committed instruction
system.cpu0.op_class_0::SimdFloatReduceAdd            0      0.00%     65.69% # Class of committed instruction
system.cpu0.op_class_0::SimdFloatReduceCmp            0      0.00%     65.69% # Class of committed instruction
system.cpu0.op_class_0::SimdAes                     0      0.00%     65.69% # Class of committed instruction
system.cpu0.op_class_0::SimdAesMix                  0      0.00%     65.69% # Class of committed instruction
system.cpu0.op_class_0::SimdSha1Hash                0      0.00%     65.69% # Class of committed instruction
system.cpu0.op_class_0::SimdSha1Hash2               0      0.00%     65.69% # Class of committed instruction
system.cpu0.op_class_0::SimdSha256Hash              0      0.00%     65.69% # Class of committed instruction
system.cpu0.op_class_0::SimdSha256Hash2             0      0.00%     65.69% # Class of committed instruction
system.cpu0.op_class_0::SimdShaSigma2               0      0.00%     65.69% # Class of committed instruction
system.cpu0.op_class_0::SimdShaSigma3               0      0.00%     65.69% # Class of committed instruction
system.cpu0.op_class_0::SimdPredAlu                 0      0.00%     65.69% # Class of committed instruction
system.cpu0.op_class_0::MemRead               3833806     22.65%     88.34% # Class of committed instruction
system.cpu0.op_class_0::MemWrite              1911134     11.29%     99.63% # Class of committed instruction
system.cpu0.op_class_0::FloatMemRead            31918      0.19%     99.81% # Class of committed instruction
system.cpu0.op_class_0::FloatMemWrite           31396      0.19%    100.00% # Class of committed instruction
system.cpu0.op_class_0::IprAccess                   0      0.00%    100.00% # Class of committed instruction
system.cpu0.op_class_0::InstPrefetch                0      0.00%    100.00% # Class of committed instruction
system.cpu0.op_class_0::total                16927931                       # Class of committed instruction
system.cpu0.tickCycles                       22927833                       # Number of cycles that the object actually ticked
system.cpu0.workload.numSyscalls                   43                       # Number of system calls
system.cpu1.branchPred.BTBCorrect                   0                       # Number of correct BTB predictions (this stat may not work properly.
system.cpu1.branchPred.BTBHitPct                  nan                       # BTB Hit Percentage
system.cpu1.branchPred.BTBHits                      0                       # Number of BTB hits
system.cpu1.branchPred.BTBLookups                   0                       # Number of BTB lookups
system.cpu1.branchPred.RASInCorrect                 0                       # Number of incorrect RAS predictions.
system.cpu1.branchPred.condIncorrect               37                       # Number of conditional branches incorrect
system.cpu1.branchPred.condPredicted               79                       # Number of conditional branches predicted
system.cpu1.branchPred.indirectHits                 0                       # Number of indirect target hits.
system.cpu1.branchPred.indirectLookups             24                       # Number of indirect predictor lookups.
system.cpu1.branchPred.indirectMisses              24                       # Number of indirect misses.
system.cpu1.branchPred.lookups                     79                       # Number of BP lookups
system.cpu1.branchPred.usedRAS                      0                       # Number of times the RAS was used to get a target.
system.cpu1.branchPredindirectMispredicted           13                       # Number of mispredicted indirect branches.
system.cpu1.committedInsts                    4703498                       # Number of instructions committed
system.cpu1.committedOps                      7785726                       # Number of ops (including micro ops) committed
system.cpu1.cpi                              5.963302                       # CPI: cycles per instruction
system.cpu1.discardedOps                      2332689                       # Number of ops (including micro ops) which were discarded before commit
system.cpu1.dtb.rdAccesses                     806398                       # TLB accesses on read requests
system.cpu1.dtb.rdMisses                         2444                       # TLB misses on read requests
system.cpu1.dtb.wrAccesses                     363171                       # TLB accesses on write requests
system.cpu1.dtb.wrMisses                           88                       # TLB misses on write requests
system.cpu1.fetch2.amo_instructions                 0                       # Number of memory atomic instructions successfully decoded
system.cpu1.fetch2.fp_instructions                  0                       # Number of floating point instructions successfully decoded
system.cpu1.fetch2.int_instructions                 9                       # Number of integer instructions successfully decoded
system.cpu1.fetch2.load_instructions                0                       # Number of memory load instructions successfully decoded
system.cpu1.fetch2.store_instructions               0                       # Number of memory store instructions successfully decoded
system.cpu1.fetch2.vec_instructions                 0                       # Number of SIMD instructions successfully decoded
system.cpu1.idleCycles                       13058911                       # Total number of cycles that the object has spent stopped
system.cpu1.ipc                              0.167692                       # IPC: instructions per cycle
system.cpu1.itb.rdAccesses                          0                       # TLB accesses on read requests
system.cpu1.itb.rdMisses                            0                       # TLB misses on read requests
system.cpu1.itb.wrAccesses                    2125305                       # TLB accesses on write requests
system.cpu1.itb.wrMisses                          244                       # TLB misses on write requests
system.cpu1.numCycles                        28048377                       # number of cpu cycles simulated
system.cpu1.numFetchSuspends                        0                       # Number of times Execute suspended instruction fetching
system.cpu1.numWorkItemsCompleted                   0                       # number of work items this cpu completed
system.cpu1.numWorkItemsStarted                     0                       # number of work items this cpu started
system.cpu1.op_class_0::No_OpClass               6408      0.08%      0.08% # Class of committed instruction
system.cpu1.op_class_0::IntAlu                6464992     83.04%     83.12% # Class of committed instruction
system.cpu1.op_class_0::IntMult                  6224      0.08%     83.20% # Class of committed instruction
system.cpu1.op_class_0::IntDiv                   1571      0.02%     83.22% # Class of committed instruction
system.cpu1.op_class_0::FloatAdd               139604      1.79%     85.01% # Class of committed instruction
system.cpu1.op_class_0::FloatCmp                    0      0.00%     85.01% # Class of committed instruction
system.cpu1.op_class_0::FloatCvt                  144      0.00%     85.01% # Class of committed instruction
system.cpu1.op_class_0::FloatMult                   0      0.00%     85.01% # Class of committed instruction
system.cpu1.op_class_0::FloatMultAcc                0      0.00%     85.01% # Class of committed instruction
system.cpu1.op_class_0::FloatDiv                    0      0.00%     85.01% # Class of committed instruction
system.cpu1.op_class_0::FloatMisc                   0      0.00%     85.01% # Class of committed instruction
system.cpu1.op_class_0::FloatSqrt                   0      0.00%     85.01% # Class of committed instruction
system.cpu1.op_class_0::SimdAdd                  1170      0.02%     85.03% # Class of committed instruction
system.cpu1.op_class_0::SimdAddAcc                  0      0.00%     85.03% # Class of committed instruction
system.cpu1.op_class_0::SimdAlu                  1323      0.02%     85.05% # Class of committed instruction
system.cpu1.op_class_0::SimdCmp                     6      0.00%     85.05% # Class of committed instruction
system.cpu1.op_class_0::SimdCvt                  1838      0.02%     85.07% # Class of committed instruction
system.cpu1.op_class_0::SimdMisc                17658      0.23%     85.30% # Class of committed instruction
system.cpu1.op_class_0::SimdMult                    0      0.00%     85.30% # Class of committed instruction
system.cpu1.op_class_0::SimdMultAcc                 0      0.00%     85.30% # Class of committed instruction
system.cpu1.op_class_0::SimdShift                 408      0.01%     85.30% # Class of committed instruction
system.cpu1.op_class_0::SimdShiftAcc                0      0.00%     85.30% # Class of committed instruction
system.cpu1.op_class_0::SimdDiv                     0      0.00%     85.30% # Class of committed instruction
system.cpu1.op_class_0::SimdSqrt                    0      0.00%     85.30% # Class of committed instruction
system.cpu1.op_class_0::SimdFloatAdd            28658      0.37%     85.67% # Class of committed instruction
system.cpu1.op_class_0::SimdFloatAlu                0      0.00%     85.67% # Class of committed instruction
system.cpu1.op_class_0::SimdFloatCmp                0      0.00%     85.67% # Class of committed instruction
system.cpu1.op_class_0::SimdFloatCvt            34832      0.45%     86.12% # Class of committed instruction
system.cpu1.op_class_0::SimdFloatDiv               22      0.00%     86.12% # Class of committed instruction
system.cpu1.op_class_0::SimdFloatMisc               0      0.00%     86.12% # Class of committed instruction
system.cpu1.op_class_0::SimdFloatMult           49128      0.63%     86.75% # Class of committed instruction
system.cpu1.op_class_0::SimdFloatMultAcc            0      0.00%     86.75% # Class of committed instruction
system.cpu1.op_class_0::SimdFloatSqrt               0      0.00%     86.75% # Class of committed instruction
system.cpu1.op_class_0::SimdReduceAdd               0      0.00%     86.75% # Class of committed instruction
system.cpu1.op_class_0::SimdReduceAlu               0      0.00%     86.75% # Class of committed instruction
system.cpu1.op_class_0::SimdReduceCmp               0      0.00%     86.75% # Class of committed instruction
system.cpu1.op_class_0::SimdFloatReduceAdd            0      0.00%     86.75% # Class of committed instruction
system.cpu1.op_class_0::SimdFloatReduceCmp            0      0.00%     86.75% # Class of committed instruction
system.cpu1.op_class_0::SimdAes                     0      0.00%     86.75% # Class of committed instruction
system.cpu1.op_class_0::SimdAesMix                  0      0.00%     86.75% # Class of committed instruction
system.cpu1.op_class_0::SimdSha1Hash                0      0.00%     86.75% # Class of committed instruction
system.cpu1.op_class_0::SimdSha1Hash2               0      0.00%     86.75% # Class of committed instruction
system.cpu1.op_class_0::SimdSha256Hash              0      0.00%     86.75% # Class of committed instruction
system.cpu1.op_class_0::SimdSha256Hash2             0      0.00%     86.75% # Class of committed instruction
system.cpu1.op_class_0::SimdShaSigma2               0      0.00%     86.75% # Class of committed instruction
system.cpu1.op_class_0::SimdShaSigma3               0      0.00%     86.75% # Class of committed instruction
system.cpu1.op_class_0::SimdPredAlu                 0      0.00%     86.75% # Class of committed instruction
system.cpu1.op_class_0::MemRead                602207      7.73%     94.48% # Class of committed instruction
system.cpu1.op_class_0::MemWrite               303330      3.90%     98.38% # Class of committed instruction
system.cpu1.op_class_0::FloatMemRead            80716      1.04%     99.42% # Class of committed instruction
system.cpu1.op_class_0::FloatMemWrite           45487      0.58%    100.00% # Class of committed instruction
system.cpu1.op_class_0::IprAccess                   0      0.00%    100.00% # Class of committed instruction
system.cpu1.op_class_0::InstPrefetch                0      0.00%    100.00% # Class of committed instruction
system.cpu1.op_class_0::total                 7785726                       # Class of committed instruction
system.cpu1.tickCycles                       14989466                       # Number of cycles that the object actually ticked
system.cpu1.workload.numSyscalls                   37                       # Number of system calls
system.membus.snoop_filter.hit_multi_requests            0                       # Number of requests hitting in the snoop filter with multiple (>1) holders of the requested data.
system.membus.snoop_filter.hit_multi_snoops            0                       # Number of snoops hitting in the snoop filter with multiple (>1) holders of the requested data.
system.membus.snoop_filter.hit_single_requests        95337                       # Number of requests hitting in the snoop filter with a single holder of the requested data.
system.membus.snoop_filter.hit_single_snoops            0                       # Number of snoops hitting in the snoop filter with a single holder of the requested data.
system.membus.snoop_filter.tot_requests        191698                       # Total number of requests made to the snoop filter.
system.membus.snoop_filter.tot_snoops               0                       # Total number of snoops made to the snoop filter.
system.tol2bus.snoop_filter.hit_multi_requests            1                       # Number of requests hitting in the snoop filter with multiple (>1) holders of the requested data.
system.tol2bus.snoop_filter.hit_multi_snoops            0                       # Number of snoops hitting in the snoop filter with multiple (>1) holders of the requested data.
system.tol2bus.snoop_filter.hit_single_requests       427478                       # Number of requests hitting in the snoop filter with a single holder of the requested data.
system.tol2bus.snoop_filter.hit_single_snoops          304                       # Number of snoops hitting in the snoop filter with a single holder of the requested data.
system.tol2bus.snoop_filter.tot_requests       855020                       # Total number of requests made to the snoop filter.
system.tol2bus.snoop_filter.tot_snoops            304                       # Total number of snoops made to the snoop filter.
system.membus.trans_dist::ReadResp              81734                       # Transaction distribution
system.membus.trans_dist::WritebackDirty        40168                       # Transaction distribution
system.membus.trans_dist::CleanEvict            55169                       # Transaction distribution
system.membus.trans_dist::ReadExReq             14627                       # Transaction distribution
system.membus.trans_dist::ReadExResp            14627                       # Transaction distribution
system.membus.trans_dist::ReadSharedReq         81734                       # Transaction distribution
system.membus.pkt_count_system.l2.mem_side::system.mem_ctrls.port       288059                       # Packet count per connected master and slave (bytes)
system.membus.pkt_count_system.l2.mem_side::total       288059                       # Packet count per connected master and slave (bytes)
system.membus.pkt_count::total                 288059                       # Packet count per connected master and slave (bytes)
system.membus.pkt_size_system.l2.mem_side::system.mem_ctrls.port      8737856                       # Cumulative packet size per connected master and slave (bytes)
system.membus.pkt_size_system.l2.mem_side::total      8737856                       # Cumulative packet size per connected master and slave (bytes)
system.membus.pkt_size::total                 8737856                       # Cumulative packet size per connected master and slave (bytes)
system.membus.snoops                                0                       # Total snoops (count)
system.membus.snoopTraffic                          0                       # Total snoop traffic (bytes)
system.membus.snoop_fanout::samples             96361                       # Request fanout histogram
system.membus.snoop_fanout::mean                    0                       # Request fanout histogram
system.membus.snoop_fanout::stdev                   0                       # Request fanout histogram
system.membus.snoop_fanout::underflows              0      0.00%      0.00% # Request fanout histogram
system.membus.snoop_fanout::0                   96361    100.00%    100.00% # Request fanout histogram
system.membus.snoop_fanout::1                       0      0.00%    100.00% # Request fanout histogram
system.membus.snoop_fanout::overflows               0      0.00%    100.00% # Request fanout histogram
system.membus.snoop_fanout::min_value               0                       # Request fanout histogram
system.membus.snoop_fanout::max_value               0                       # Request fanout histogram
system.membus.snoop_fanout::total               96361                       # Request fanout histogram
system.membus.reqLayer4.occupancy           385611000                       # Layer occupancy (ticks)
system.membus.reqLayer4.utilization               2.7                       # Layer utilization (%)
system.membus.respLayer1.occupancy          509596500                       # Layer occupancy (ticks)
system.membus.respLayer1.utilization              3.6                       # Layer utilization (%)
system.membus.power_state.pwrStateResidencyTicks::UNDEFINED  14024188500                       # Cumulative time (in ticks) in various power states
system.voltage_domain.voltage                       1                       # Voltage in Volts
system.clk_domain.clock                          1000                       # Clock period in ticks
system.cpu0.icache.demand_hits::.cpu0.inst      2429339                       # number of demand (read+write) hits
system.cpu0.icache.demand_hits::total         2429339                       # number of demand (read+write) hits
system.cpu0.icache.overall_hits::.cpu0.inst      2429339                       # number of overall hits
system.cpu0.icache.overall_hits::total        2429339                       # number of overall hits
system.cpu0.icache.demand_misses::.cpu0.inst        13840                       # number of demand (read+write) misses
system.cpu0.icache.demand_misses::total         13840                       # number of demand (read+write) misses
system.cpu0.icache.overall_misses::.cpu0.inst        13840                       # number of overall misses
system.cpu0.icache.overall_misses::total        13840                       # number of overall misses
system.cpu0.icache.demand_miss_latency::.cpu0.inst    359809500                       # number of demand (read+write) miss cycles
system.cpu0.icache.demand_miss_latency::total    359809500                       # number of demand (read+write) miss cycles
system.cpu0.icache.overall_miss_latency::.cpu0.inst    359809500                       # number of overall miss cycles
system.cpu0.icache.overall_miss_latency::total    359809500                       # number of overall miss cycles
system.cpu0.icache.demand_accesses::.cpu0.inst      2443179                       # number of demand (read+write) accesses
system.cpu0.icache.demand_accesses::total      2443179                       # number of demand (read+write) accesses
system.cpu0.icache.overall_accesses::.cpu0.inst      2443179                       # number of overall (read+write) accesses
system.cpu0.icache.overall_accesses::total      2443179                       # number of overall (read+write) accesses
system.cpu0.icache.demand_miss_rate::.cpu0.inst     0.005665                       # miss rate for demand accesses
system.cpu0.icache.demand_miss_rate::total     0.005665                       # miss rate for demand accesses
system.cpu0.icache.overall_miss_rate::.cpu0.inst     0.005665                       # miss rate for overall accesses
system.cpu0.icache.overall_miss_rate::total     0.005665                       # miss rate for overall accesses
system.cpu0.icache.demand_avg_miss_latency::.cpu0.inst 25997.796243                       # average overall miss latency
system.cpu0.icache.demand_avg_miss_latency::total 25997.796243                       # average overall miss latency
system.cpu0.icache.overall_avg_miss_latency::.cpu0.inst 25997.796243                       # average overall miss latency
system.cpu0.icache.overall_avg_miss_latency::total 25997.796243                       # average overall miss latency
system.cpu0.icache.blocked_cycles::no_mshrs            0                       # number of cycles access was blocked
system.cpu0.icache.blocked_cycles::no_targets            0                       # number of cycles access was blocked
system.cpu0.icache.blocked::no_mshrs                0                       # number of cycles access was blocked
system.cpu0.icache.blocked::no_targets              0                       # number of cycles access was blocked
system.cpu0.icache.avg_blocked_cycles::no_mshrs          nan                       # average number of cycles each access was blocked
system.cpu0.icache.avg_blocked_cycles::no_targets          nan                       # average number of cycles each access was blocked
system.cpu0.icache.writebacks::.writebacks        13824                       # number of writebacks
system.cpu0.icache.writebacks::total            13824                       # number of writebacks
system.cpu0.icache.demand_mshr_misses::.cpu0.inst        13840                       # number of demand (read+write) MSHR misses
system.cpu0.icache.demand_mshr_misses::total        13840                       # number of demand (read+write) MSHR misses
system.cpu0.icache.overall_mshr_misses::.cpu0.inst        13840                       # number of overall MSHR misses
system.cpu0.icache.overall_mshr_misses::total        13840                       # number of overall MSHR misses
system.cpu0.icache.demand_mshr_miss_latency::.cpu0.inst    345969500                       # number of demand (read+write) MSHR miss cycles
system.cpu0.icache.demand_mshr_miss_latency::total    345969500                       # number of demand (read+write) MSHR miss cycles
system.cpu0.icache.overall_mshr_miss_latency::.cpu0.inst    345969500                       # number of overall MSHR miss cycles
system.cpu0.icache.overall_mshr_miss_latency::total    345969500                       # number of overall MSHR miss cycles
system.cpu0.icache.demand_mshr_miss_rate::.cpu0.inst     0.005665                       # mshr miss rate for demand accesses
system.cpu0.icache.demand_mshr_miss_rate::total     0.005665                       # mshr miss rate for demand accesses
system.cpu0.icache.overall_mshr_miss_rate::.cpu0.inst     0.005665                       # mshr miss rate for overall accesses
system.cpu0.icache.overall_mshr_miss_rate::total     0.005665                       # mshr miss rate for overall accesses
system.cpu0.icache.demand_avg_mshr_miss_latency::.cpu0.inst 24997.796243                       # average overall mshr miss latency
system.cpu0.icache.demand_avg_mshr_miss_latency::total 24997.796243                       # average overall mshr miss latency
system.cpu0.icache.overall_avg_mshr_miss_latency::.cpu0.inst 24997.796243                       # average overall mshr miss latency
system.cpu0.icache.overall_avg_mshr_miss_latency::total 24997.796243                       # average overall mshr miss latency
system.cpu0.icache.replacements                 13824                       # number of replacements
system.cpu0.icache.ReadReq_hits::.cpu0.inst      2429339                       # number of ReadReq hits
system.cpu0.icache.ReadReq_hits::total        2429339                       # number of ReadReq hits
system.cpu0.icache.ReadReq_misses::.cpu0.inst        13840                       # number of ReadReq misses
system.cpu0.icache.ReadReq_misses::total        13840                       # number of ReadReq misses
system.cpu0.icache.ReadReq_miss_latency::.cpu0.inst    359809500                       # number of ReadReq miss cycles
system.cpu0.icache.ReadReq_miss_latency::total    359809500                       # number of ReadReq miss cycles
system.cpu0.icache.ReadReq_accesses::.cpu0.inst      2443179                       # number of ReadReq accesses(hits+misses)
system.cpu0.icache.ReadReq_accesses::total      2443179                       # number of ReadReq accesses(hits+misses)
system.cpu0.icache.ReadReq_miss_rate::.cpu0.inst     0.005665                       # miss rate for ReadReq accesses
system.cpu0.icache.ReadReq_miss_rate::total     0.005665                       # miss rate for ReadReq accesses
system.cpu0.icache.ReadReq_avg_miss_latency::.cpu0.inst 25997.796243                       # average ReadReq miss latency
system.cpu0.icache.ReadReq_avg_miss_latency::total 25997.796243                       # average ReadReq miss latency
system.cpu0.icache.ReadReq_mshr_misses::.cpu0.inst        13840                       # number of ReadReq MSHR misses
system.cpu0.icache.ReadReq_mshr_misses::total        13840                       # number of ReadReq MSHR misses
system.cpu0.icache.ReadReq_mshr_miss_latency::.cpu0.inst    345969500                       # number of ReadReq MSHR miss cycles
system.cpu0.icache.ReadReq_mshr_miss_latency::total    345969500                       # number of ReadReq MSHR miss cycles
system.cpu0.icache.ReadReq_mshr_miss_rate::.cpu0.inst     0.005665                       # mshr miss rate for ReadReq accesses
system.cpu0.icache.ReadReq_mshr_miss_rate::total     0.005665                       # mshr miss rate for ReadReq accesses
system.cpu0.icache.ReadReq_avg_mshr_miss_latency::.cpu0.inst 24997.796243                       # average ReadReq mshr miss latency
system.cpu0.icache.ReadReq_avg_mshr_miss_latency::total 24997.796243                       # average ReadReq mshr miss latency
system.cpu0.icache.power_state.pwrStateResidencyTicks::UNDEFINED  14024188500                       # Cumulative time (in ticks) in various power states
system.cpu0.icache.tags.tagsinuse           15.998981                       # Cycle average of tags in use
system.cpu0.icache.tags.total_refs            2443179                       # Total number of references to valid blocks.
system.cpu0.icache.tags.sampled_refs            13840                       # Sample count of references to valid blocks.
system.cpu0.icache.tags.avg_refs           176.530275                       # Average number of references to valid blocks.
system.cpu0.icache.tags.warmup_cycle            87500                       # Cycle when the warmup percentage was hit.
system.cpu0.icache.tags.occ_blocks::.cpu0.inst    15.998981                       # Average occupied blocks per requestor
system.cpu0.icache.tags.occ_percent::.cpu0.inst     0.999936                       # Average percentage of cache occupancy
system.cpu0.icache.tags.occ_percent::total     0.999936                       # Average percentage of cache occupancy
system.cpu0.icache.tags.occ_task_id_blocks::1024           16                       # Occupied blocks per task id
system.cpu0.icache.tags.age_task_id_blocks_1024::1           16                       # Occupied blocks per task id
system.cpu0.icache.tags.occ_task_id_percent::1024            1                       # Percentage of cache occupancy per task id
system.cpu0.icache.tags.tag_accesses         19559272                       # Number of tag accesses
system.cpu0.icache.tags.data_accesses        19559272                       # Number of data accesses
system.cpu0.icache.tags.power_state.pwrStateResidencyTicks::UNDEFINED  14024188500                       # Cumulative time (in ticks) in various power states
system.cpu0.dtb.walker.power_state.pwrStateResidencyTicks::UNDEFINED  14024188500                       # Cumulative time (in ticks) in various power states
system.cpu0.interrupts.clk_domain.clock          8000                       # Clock period in ticks
system.cpu0.itb_walker_cache.blocked_cycles::no_mshrs            0                       # number of cycles access was blocked
system.cpu0.itb_walker_cache.blocked_cycles::no_targets            0                       # number of cycles access was blocked
system.cpu0.itb_walker_cache.blocked::no_mshrs            0                       # number of cycles access was blocked
system.cpu0.itb_walker_cache.blocked::no_targets            0                       # number of cycles access was blocked
system.cpu0.itb_walker_cache.avg_blocked_cycles::no_mshrs          nan                       # average number of cycles each access was blocked
system.cpu0.itb_walker_cache.avg_blocked_cycles::no_targets          nan                       # average number of cycles each access was blocked
system.cpu0.itb_walker_cache.replacements            0                       # number of replacements
system.cpu0.itb_walker_cache.power_state.pwrStateResidencyTicks::UNDEFINED  14024188500                       # Cumulative time (in ticks) in various power states
system.cpu0.itb_walker_cache.tags.tagsinuse            0                       # Cycle average of tags in use
system.cpu0.itb_walker_cache.tags.total_refs            0                       # Total number of references to valid blocks.
system.cpu0.itb_walker_cache.tags.sampled_refs            0                       # Sample count of references to valid blocks.
system.cpu0.itb_walker_cache.tags.avg_refs          nan                       # Average number of references to valid blocks.
system.cpu0.itb_walker_cache.tags.warmup_cycle            0                       # Cycle when the warmup percentage was hit.
system.cpu0.itb_walker_cache.tags.tag_accesses            0                       # Number of tag accesses
system.cpu0.itb_walker_cache.tags.data_accesses            0                       # Number of data accesses
system.cpu0.itb_walker_cache.tags.power_state.pwrStateResidencyTicks::UNDEFINED  14024188500                       # Cumulative time (in ticks) in various power states
system.cpu0.dtb_walker_cache.blocked_cycles::no_mshrs            0                       # number of cycles access was blocked
system.cpu0.dtb_walker_cache.blocked_cycles::no_targets            0                       # number of cycles access was blocked
system.cpu0.dtb_walker_cache.blocked::no_mshrs            0                       # number of cycles access was blocked
system.cpu0.dtb_walker_cache.blocked::no_targets            0                       # number of cycles access was blocked
system.cpu0.dtb_walker_cache.avg_blocked_cycles::no_mshrs          nan                       # average number of cycles each access was blocked
system.cpu0.dtb_walker_cache.avg_blocked_cycles::no_targets          nan                       # average number of cycles each access was blocked
system.cpu0.dtb_walker_cache.replacements            0                       # number of replacements
system.cpu0.dtb_walker_cache.power_state.pwrStateResidencyTicks::UNDEFINED  14024188500                       # Cumulative time (in ticks) in various power states
system.cpu0.dtb_walker_cache.tags.tagsinuse            0                       # Cycle average of tags in use
system.cpu0.dtb_walker_cache.tags.total_refs            0                       # Total number of references to valid blocks.
system.cpu0.dtb_walker_cache.tags.sampled_refs            0                       # Sample count of references to valid blocks.
system.cpu0.dtb_walker_cache.tags.avg_refs          nan                       # Average number of references to valid blocks.
system.cpu0.dtb_walker_cache.tags.warmup_cycle            0                       # Cycle when the warmup percentage was hit.
system.cpu0.dtb_walker_cache.tags.tag_accesses            0                       # Number of tag accesses
system.cpu0.dtb_walker_cache.tags.data_accesses            0                       # Number of data accesses
system.cpu0.dtb_walker_cache.tags.power_state.pwrStateResidencyTicks::UNDEFINED  14024188500                       # Cumulative time (in ticks) in various power states
system.cpu0.dcache.demand_hits::.cpu0.data      5861416                       # number of demand (read+write) hits
system.cpu0.dcache.demand_hits::total         5861416                       # number of demand (read+write) hits
system.cpu0.dcache.overall_hits::.cpu0.data      5861828                       # number of overall hits
system.cpu0.dcache.overall_hits::total        5861828                       # number of overall hits
system.cpu0.dcache.demand_misses::.cpu0.data       226533                       # number of demand (read+write) misses
system.cpu0.dcache.demand_misses::total        226533                       # number of demand (read+write) misses
system.cpu0.dcache.overall_misses::.cpu0.data       233512                       # number of overall misses
system.cpu0.dcache.overall_misses::total       233512                       # number of overall misses
system.cpu0.dcache.demand_miss_latency::.cpu0.data   4070551989                       # number of demand (read+write) miss cycles
system.cpu0.dcache.demand_miss_latency::total   4070551989                       # number of demand (read+write) miss cycles
system.cpu0.dcache.overall_miss_latency::.cpu0.data   4070551989                       # number of overall miss cycles
system.cpu0.dcache.overall_miss_latency::total   4070551989                       # number of overall miss cycles
system.cpu0.dcache.demand_accesses::.cpu0.data      6087949                       # number of demand (read+write) accesses
system.cpu0.dcache.demand_accesses::total      6087949                       # number of demand (read+write) accesses
system.cpu0.dcache.overall_accesses::.cpu0.data      6095340                       # number of overall (read+write) accesses
system.cpu0.dcache.overall_accesses::total      6095340                       # number of overall (read+write) accesses
system.cpu0.dcache.demand_miss_rate::.cpu0.data     0.037210                       # miss rate for demand accesses
system.cpu0.dcache.demand_miss_rate::total     0.037210                       # miss rate for demand accesses
system.cpu0.dcache.overall_miss_rate::.cpu0.data     0.038310                       # miss rate for overall accesses
system.cpu0.dcache.overall_miss_rate::total     0.038310                       # miss rate for overall accesses
system.cpu0.dcache.demand_avg_miss_latency::.cpu0.data 17968.913973                       # average overall miss latency
system.cpu0.dcache.demand_avg_miss_latency::total 17968.913973                       # average overall miss latency
system.cpu0.dcache.overall_avg_miss_latency::.cpu0.data 17431.874974                       # average overall miss latency
system.cpu0.dcache.overall_avg_miss_latency::total 17431.874974                       # average overall miss latency
system.cpu0.dcache.blocked_cycles::no_mshrs         1969                       # number of cycles access was blocked
system.cpu0.dcache.blocked_cycles::no_targets            0                       # number of cycles access was blocked
system.cpu0.dcache.blocked::no_mshrs               39                       # number of cycles access was blocked
system.cpu0.dcache.blocked::no_targets              0                       # number of cycles access was blocked
system.cpu0.dcache.avg_blocked_cycles::no_mshrs    50.487179                       # average number of cycles each access was blocked
system.cpu0.dcache.avg_blocked_cycles::no_targets          nan                       # average number of cycles each access was blocked
system.cpu0.dcache.writebacks::.writebacks        60626                       # number of writebacks
system.cpu0.dcache.writebacks::total            60626                       # number of writebacks
system.cpu0.dcache.demand_mshr_hits::.cpu0.data         8890                       # number of demand (read+write) MSHR hits
system.cpu0.dcache.demand_mshr_hits::total         8890                       # number of demand (read+write) MSHR hits
system.cpu0.dcache.overall_mshr_hits::.cpu0.data         8890                       # number of overall MSHR hits
system.cpu0.dcache.overall_mshr_hits::total         8890                       # number of overall MSHR hits
system.cpu0.dcache.demand_mshr_misses::.cpu0.data       217643                       # number of demand (read+write) MSHR misses
system.cpu0.dcache.demand_mshr_misses::total       217643                       # number of demand (read+write) MSHR misses
system.cpu0.dcache.overall_mshr_misses::.cpu0.data       221386                       # number of overall MSHR misses
system.cpu0.dcache.overall_mshr_misses::total       221386                       # number of overall MSHR misses
system.cpu0.dcache.demand_mshr_miss_latency::.cpu0.data   3622926000                       # number of demand (read+write) MSHR miss cycles
system.cpu0.dcache.demand_mshr_miss_latency::total   3622926000                       # number of demand (read+write) MSHR miss cycles
system.cpu0.dcache.overall_mshr_miss_latency::.cpu0.data   3920846000                       # number of overall MSHR miss cycles
system.cpu0.dcache.overall_mshr_miss_latency::total   3920846000                       # number of overall MSHR miss cycles
system.cpu0.dcache.demand_mshr_miss_rate::.cpu0.data     0.035750                       # mshr miss rate for demand accesses
system.cpu0.dcache.demand_mshr_miss_rate::total     0.035750                       # mshr miss rate for demand accesses
system.cpu0.dcache.overall_mshr_miss_rate::.cpu0.data     0.036321                       # mshr miss rate for overall accesses
system.cpu0.dcache.overall_mshr_miss_rate::total     0.036321                       # mshr miss rate for overall accesses
system.cpu0.dcache.demand_avg_mshr_miss_latency::.cpu0.data 16646.186645                       # average overall mshr miss latency
system.cpu0.dcache.demand_avg_mshr_miss_latency::total 16646.186645                       # average overall mshr miss latency
system.cpu0.dcache.overall_avg_mshr_miss_latency::.cpu0.data 17710.451429                       # average overall mshr miss latency
system.cpu0.dcache.overall_avg_mshr_miss_latency::total 17710.451429                       # average overall mshr miss latency
system.cpu0.dcache.replacements                221370                       # number of replacements
system.cpu0.dcache.ReadReq_hits::.cpu0.data      3983149                       # number of ReadReq hits
system.cpu0.dcache.ReadReq_hits::total        3983149                       # number of ReadReq hits
system.cpu0.dcache.ReadReq_misses::.cpu0.data       163111                       # number of ReadReq misses
system.cpu0.dcache.ReadReq_misses::total       163111                       # number of ReadReq misses
system.cpu0.dcache.ReadReq_miss_latency::.cpu0.data   2435408500                       # number of ReadReq miss cycles
system.cpu0.dcache.ReadReq_miss_latency::total   2435408500                       # number of ReadReq miss cycles
system.cpu0.dcache.ReadReq_accesses::.cpu0.data      4146260                       # number of ReadReq accesses(hits+misses)
system.cpu0.dcache.ReadReq_accesses::total      4146260                       # number of ReadReq accesses(hits+misses)
system.cpu0.dcache.ReadReq_miss_rate::.cpu0.data     0.039339                       # miss rate for ReadReq accesses
system.cpu0.dcache.ReadReq_miss_rate::total     0.039339                       # miss rate for ReadReq accesses
system.cpu0.dcache.ReadReq_avg_miss_latency::.cpu0.data 14930.988713                       # average ReadReq miss latency
system.cpu0.dcache.ReadReq_avg_miss_latency::total 14930.988713                       # average ReadReq miss latency
system.cpu0.dcache.ReadReq_mshr_hits::.cpu0.data          472                       # number of ReadReq MSHR hits
system.cpu0.dcache.ReadReq_mshr_hits::total          472                       # number of ReadReq MSHR hits
system.cpu0.dcache.ReadReq_mshr_misses::.cpu0.data       162639                       # number of ReadReq MSHR misses
system.cpu0.dcache.ReadReq_mshr_misses::total       162639                       # number of ReadReq MSHR misses
system.cpu0.dcache.ReadReq_mshr_miss_latency::.cpu0.data   2251681500                       # number of ReadReq MSHR miss cycles
system.cpu0.dcache.ReadReq_mshr_miss_latency::total   2251681500                       # number of ReadReq MSHR miss cycles
system.cpu0.dcache.ReadReq_mshr_miss_rate::.cpu0.data     0.039225                       # mshr miss rate for ReadReq accesses
system.cpu0.dcache.ReadReq_mshr_miss_rate::total     0.039225                       # mshr miss rate for ReadReq accesses
system.cpu0.dcache.ReadReq_avg_mshr_miss_latency::.cpu0.data 13844.659030                       # average ReadReq mshr miss latency
system.cpu0.dcache.ReadReq_avg_mshr_miss_latency::total 13844.659030                       # average ReadReq mshr miss latency
system.cpu0.dcache.WriteReq_hits::.cpu0.data      1878267                       # number of WriteReq hits
system.cpu0.dcache.WriteReq_hits::total       1878267                       # number of WriteReq hits
system.cpu0.dcache.WriteReq_misses::.cpu0.data        63422                       # number of WriteReq misses
system.cpu0.dcache.WriteReq_misses::total        63422                       # number of WriteReq misses
system.cpu0.dcache.WriteReq_miss_latency::.cpu0.data   1635143489                       # number of WriteReq miss cycles
system.cpu0.dcache.WriteReq_miss_latency::total   1635143489                       # number of WriteReq miss cycles
system.cpu0.dcache.WriteReq_accesses::.cpu0.data      1941689                       # number of WriteReq accesses(hits+misses)
system.cpu0.dcache.WriteReq_accesses::total      1941689                       # number of WriteReq accesses(hits+misses)
system.cpu0.dcache.WriteReq_miss_rate::.cpu0.data     0.032663                       # miss rate for WriteReq accesses
system.cpu0.dcache.WriteReq_miss_rate::total     0.032663                       # miss rate for WriteReq accesses
system.cpu0.dcache.WriteReq_avg_miss_latency::.cpu0.data 25781.960345                       # average WriteReq miss latency
system.cpu0.dcache.WriteReq_avg_miss_latency::total 25781.960345                       # average WriteReq miss latency
system.cpu0.dcache.WriteReq_mshr_hits::.cpu0.data         8418                       # number of WriteReq MSHR hits
system.cpu0.dcache.WriteReq_mshr_hits::total         8418                       # number of WriteReq MSHR hits
system.cpu0.dcache.WriteReq_mshr_misses::.cpu0.data        55004                       # number of WriteReq MSHR misses
system.cpu0.dcache.WriteReq_mshr_misses::total        55004                       # number of WriteReq MSHR misses
system.cpu0.dcache.WriteReq_mshr_miss_latency::.cpu0.data   1371244500                       # number of WriteReq MSHR miss cycles
system.cpu0.dcache.WriteReq_mshr_miss_latency::total   1371244500                       # number of WriteReq MSHR miss cycles
system.cpu0.dcache.WriteReq_mshr_miss_rate::.cpu0.data     0.028328                       # mshr miss rate for WriteReq accesses
system.cpu0.dcache.WriteReq_mshr_miss_rate::total     0.028328                       # mshr miss rate for WriteReq accesses
system.cpu0.dcache.WriteReq_avg_mshr_miss_latency::.cpu0.data 24929.905098                       # average WriteReq mshr miss latency
system.cpu0.dcache.WriteReq_avg_mshr_miss_latency::total 24929.905098                       # average WriteReq mshr miss latency
system.cpu0.dcache.SoftPFReq_hits::.cpu0.data          412                       # number of SoftPFReq hits
system.cpu0.dcache.SoftPFReq_hits::total          412                       # number of SoftPFReq hits
system.cpu0.dcache.SoftPFReq_misses::.cpu0.data         6979                       # number of SoftPFReq misses
system.cpu0.dcache.SoftPFReq_misses::total         6979                       # number of SoftPFReq misses
system.cpu0.dcache.SoftPFReq_accesses::.cpu0.data         7391                       # number of SoftPFReq accesses(hits+misses)
system.cpu0.dcache.SoftPFReq_accesses::total         7391                       # number of SoftPFReq accesses(hits+misses)
system.cpu0.dcache.SoftPFReq_miss_rate::.cpu0.data     0.944257                       # miss rate for SoftPFReq accesses
system.cpu0.dcache.SoftPFReq_miss_rate::total     0.944257                       # miss rate for SoftPFReq accesses
system.cpu0.dcache.SoftPFReq_mshr_misses::.cpu0.data         3743                       # number of SoftPFReq MSHR misses
system.cpu0.dcache.SoftPFReq_mshr_misses::total         3743                       # number of SoftPFReq MSHR misses
system.cpu0.dcache.SoftPFReq_mshr_miss_latency::.cpu0.data    297920000                       # number of SoftPFReq MSHR miss cycles
system.cpu0.dcache.SoftPFReq_mshr_miss_latency::total    297920000                       # number of SoftPFReq MSHR miss cycles
system.cpu0.dcache.SoftPFReq_mshr_miss_rate::.cpu0.data     0.506427                       # mshr miss rate for SoftPFReq accesses
system.cpu0.dcache.SoftPFReq_mshr_miss_rate::total     0.506427                       # mshr miss rate for SoftPFReq accesses
system.cpu0.dcache.SoftPFReq_avg_mshr_miss_latency::.cpu0.data 79593.908629                       # average SoftPFReq mshr miss latency
system.cpu0.dcache.SoftPFReq_avg_mshr_miss_latency::total 79593.908629                       # average SoftPFReq mshr miss latency
system.cpu0.dcache.power_state.pwrStateResidencyTicks::UNDEFINED  14024188500                       # Cumulative time (in ticks) in various power states
system.cpu0.dcache.tags.tagsinuse           15.998893                       # Cycle average of tags in use
system.cpu0.dcache.tags.total_refs            6083214                       # Total number of references to valid blocks.
system.cpu0.dcache.tags.sampled_refs           221386                       # Sample count of references to valid blocks.
system.cpu0.dcache.tags.avg_refs            27.477862                       # Average number of references to valid blocks.
system.cpu0.dcache.tags.warmup_cycle           178500                       # Cycle when the warmup percentage was hit.
system.cpu0.dcache.tags.occ_blocks::.cpu0.data    15.998893                       # Average occupied blocks per requestor
system.cpu0.dcache.tags.occ_percent::.cpu0.data     0.999931                       # Average percentage of cache occupancy
system.cpu0.dcache.tags.occ_percent::total     0.999931                       # Average percentage of cache occupancy
system.cpu0.dcache.tags.occ_task_id_blocks::1024           16                       # Occupied blocks per task id
system.cpu0.dcache.tags.age_task_id_blocks_1024::0           12                       # Occupied blocks per task id
system.cpu0.dcache.tags.age_task_id_blocks_1024::1            4                       # Occupied blocks per task id
system.cpu0.dcache.tags.occ_task_id_percent::1024            1                       # Percentage of cache occupancy per task id
system.cpu0.dcache.tags.tag_accesses         48984106                       # Number of tag accesses
system.cpu0.dcache.tags.data_accesses        48984106                       # Number of data accesses
system.cpu0.dcache.tags.power_state.pwrStateResidencyTicks::UNDEFINED  14024188500                       # Cumulative time (in ticks) in various power states
system.cpu0.power_state.pwrStateResidencyTicks::ON  14024188500                       # Cumulative time (in ticks) in various power states
system.cpu0.itb.walker.power_state.pwrStateResidencyTicks::UNDEFINED  14024188500                       # Cumulative time (in ticks) in various power states
system.cpu1.icache.demand_hits::.cpu1.inst      2060398                       # number of demand (read+write) hits
system.cpu1.icache.demand_hits::total         2060398                       # number of demand (read+write) hits
system.cpu1.icache.overall_hits::.cpu1.inst      2060398                       # number of overall hits
system.cpu1.icache.overall_hits::total        2060398                       # number of overall hits
system.cpu1.icache.demand_misses::.cpu1.inst        64843                       # number of demand (read+write) misses
system.cpu1.icache.demand_misses::total         64843                       # number of demand (read+write) misses
system.cpu1.icache.overall_misses::.cpu1.inst        64843                       # number of overall misses
system.cpu1.icache.overall_misses::total        64843                       # number of overall misses
system.cpu1.icache.demand_miss_latency::.cpu1.inst   1244871500                       # number of demand (read+write) miss cycles
system.cpu1.icache.demand_miss_latency::total   1244871500                       # number of demand (read+write) miss cycles
system.cpu1.icache.overall_miss_latency::.cpu1.inst   1244871500                       # number of overall miss cycles
system.cpu1.icache.overall_miss_latency::total   1244871500                       # number of overall miss cycles
system.cpu1.icache.demand_accesses::.cpu1.inst      2125241                       # number of demand (read+write) accesses
system.cpu1.icache.demand_accesses::total      2125241                       # number of demand (read+write) accesses
system.cpu1.icache.overall_accesses::.cpu1.inst      2125241                       # number of overall (read+write) accesses
system.cpu1.icache.overall_accesses::total      2125241                       # number of overall (read+write) accesses
system.cpu1.icache.demand_miss_rate::.cpu1.inst     0.030511                       # miss rate for demand accesses
system.cpu1.icache.demand_miss_rate::total     0.030511                       # miss rate for demand accesses
system.cpu1.icache.overall_miss_rate::.cpu1.inst     0.030511                       # miss rate for overall accesses
system.cpu1.icache.overall_miss_rate::total     0.030511                       # miss rate for overall accesses
system.cpu1.icache.demand_avg_miss_latency::.cpu1.inst 19198.240365                       # average overall miss latency
system.cpu1.icache.demand_avg_miss_latency::total 19198.240365                       # average overall miss latency
system.cpu1.icache.overall_avg_miss_latency::.cpu1.inst 19198.240365                       # average overall miss latency
system.cpu1.icache.overall_avg_miss_latency::total 19198.240365                       # average overall miss latency
system.cpu1.icache.blocked_cycles::no_mshrs            0                       # number of cycles access was blocked
system.cpu1.icache.blocked_cycles::no_targets            0                       # number of cycles access was blocked
system.cpu1.icache.blocked::no_mshrs                0                       # number of cycles access was blocked
system.cpu1.icache.blocked::no_targets              0                       # number of cycles access was blocked
system.cpu1.icache.avg_blocked_cycles::no_mshrs          nan                       # average number of cycles each access was blocked
system.cpu1.icache.avg_blocked_cycles::no_targets          nan                       # average number of cycles each access was blocked
system.cpu1.icache.writebacks::.writebacks        64827                       # number of writebacks
system.cpu1.icache.writebacks::total            64827                       # number of writebacks
system.cpu1.icache.demand_mshr_misses::.cpu1.inst        64843                       # number of demand (read+write) MSHR misses
system.cpu1.icache.demand_mshr_misses::total        64843                       # number of demand (read+write) MSHR misses
system.cpu1.icache.overall_mshr_misses::.cpu1.inst        64843                       # number of overall MSHR misses
system.cpu1.icache.overall_mshr_misses::total        64843                       # number of overall MSHR misses
system.cpu1.icache.demand_mshr_miss_latency::.cpu1.inst   1180028500                       # number of demand (read+write) MSHR miss cycles
system.cpu1.icache.demand_mshr_miss_latency::total   1180028500                       # number of demand (read+write) MSHR miss cycles
system.cpu1.icache.overall_mshr_miss_latency::.cpu1.inst   1180028500                       # number of overall MSHR miss cycles
system.cpu1.icache.overall_mshr_miss_latency::total   1180028500                       # number of overall MSHR miss cycles
system.cpu1.icache.demand_mshr_miss_rate::.cpu1.inst     0.030511                       # mshr miss rate for demand accesses
system.cpu1.icache.demand_mshr_miss_rate::total     0.030511                       # mshr miss rate for demand accesses
system.cpu1.icache.overall_mshr_miss_rate::.cpu1.inst     0.030511                       # mshr miss rate for overall accesses
system.cpu1.icache.overall_mshr_miss_rate::total     0.030511                       # mshr miss rate for overall accesses
system.cpu1.icache.demand_avg_mshr_miss_latency::.cpu1.inst 18198.240365                       # average overall mshr miss latency
system.cpu1.icache.demand_avg_mshr_miss_latency::total 18198.240365                       # average overall mshr miss latency
system.cpu1.icache.overall_avg_mshr_miss_latency::.cpu1.inst 18198.240365                       # average overall mshr miss latency
system.cpu1.icache.overall_avg_mshr_miss_latency::total 18198.240365                       # average overall mshr miss latency
system.cpu1.icache.replacements                 64827                       # number of replacements
system.cpu1.icache.ReadReq_hits::.cpu1.inst      2060398                       # number of ReadReq hits
system.cpu1.icache.ReadReq_hits::total        2060398                       # number of ReadReq hits
system.cpu1.icache.ReadReq_misses::.cpu1.inst        64843                       # number of ReadReq misses
system.cpu1.icache.ReadReq_misses::total        64843                       # number of ReadReq misses
system.cpu1.icache.ReadReq_miss_latency::.cpu1.inst   1244871500                       # number of ReadReq miss cycles
system.cpu1.icache.ReadReq_miss_latency::total   1244871500                       # number of ReadReq miss cycles
system.cpu1.icache.ReadReq_accesses::.cpu1.inst      2125241                       # number of ReadReq accesses(hits+misses)
system.cpu1.icache.ReadReq_accesses::total      2125241                       # number of ReadReq accesses(hits+misses)
system.cpu1.icache.ReadReq_miss_rate::.cpu1.inst     0.030511                       # miss rate for ReadReq accesses
system.cpu1.icache.ReadReq_miss_rate::total     0.030511                       # miss rate for ReadReq accesses
system.cpu1.icache.ReadReq_avg_miss_latency::.cpu1.inst 19198.240365                       # average ReadReq miss latency
system.cpu1.icache.ReadReq_avg_miss_latency::total 19198.240365                       # average ReadReq miss latency
system.cpu1.icache.ReadReq_mshr_misses::.cpu1.inst        64843                       # number of ReadReq MSHR misses
system.cpu1.icache.ReadReq_mshr_misses::total        64843                       # number of ReadReq MSHR misses
system.cpu1.icache.ReadReq_mshr_miss_latency::.cpu1.inst   1180028500                       # number of ReadReq MSHR miss cycles
system.cpu1.icache.ReadReq_mshr_miss_latency::total   1180028500                       # number of ReadReq MSHR miss cycles
system.cpu1.icache.ReadReq_mshr_miss_rate::.cpu1.inst     0.030511                       # mshr miss rate for ReadReq accesses
system.cpu1.icache.ReadReq_mshr_miss_rate::total     0.030511                       # mshr miss rate for ReadReq accesses
system.cpu1.icache.ReadReq_avg_mshr_miss_latency::.cpu1.inst 18198.240365                       # average ReadReq mshr miss latency
system.cpu1.icache.ReadReq_avg_mshr_miss_latency::total 18198.240365                       # average ReadReq mshr miss latency
system.cpu1.icache.power_state.pwrStateResidencyTicks::UNDEFINED  14024188500                       # Cumulative time (in ticks) in various power states
system.cpu1.icache.tags.tagsinuse           15.998957                       # Cycle average of tags in use
system.cpu1.icache.tags.total_refs            2125241                       # Total number of references to valid blocks.
system.cpu1.icache.tags.sampled_refs            64843                       # Sample count of references to valid blocks.
system.cpu1.icache.tags.avg_refs            32.775180                       # Average number of references to valid blocks.
system.cpu1.icache.tags.warmup_cycle            94500                       # Cycle when the warmup percentage was hit.
system.cpu1.icache.tags.occ_blocks::.cpu1.inst    15.998957                       # Average occupied blocks per requestor
system.cpu1.icache.tags.occ_percent::.cpu1.inst     0.999935                       # Average percentage of cache occupancy
system.cpu1.icache.tags.occ_percent::total     0.999935                       # Average percentage of cache occupancy
system.cpu1.icache.tags.occ_task_id_blocks::1024           16                       # Occupied blocks per task id
system.cpu1.icache.tags.age_task_id_blocks_1024::1           16                       # Occupied blocks per task id
system.cpu1.icache.tags.occ_task_id_percent::1024            1                       # Percentage of cache occupancy per task id
system.cpu1.icache.tags.tag_accesses         17066771                       # Number of tag accesses
system.cpu1.icache.tags.data_accesses        17066771                       # Number of data accesses
system.cpu1.icache.tags.power_state.pwrStateResidencyTicks::UNDEFINED  14024188500                       # Cumulative time (in ticks) in various power states
system.cpu1.dtb.walker.power_state.pwrStateResidencyTicks::UNDEFINED  14024188500                       # Cumulative time (in ticks) in various power states
system.cpu1.interrupts.clk_domain.clock          8000                       # Clock period in ticks
system.cpu1.itb_walker_cache.blocked_cycles::no_mshrs            0                       # number of cycles access was blocked
system.cpu1.itb_walker_cache.blocked_cycles::no_targets            0                       # number of cycles access was blocked
system.cpu1.itb_walker_cache.blocked::no_mshrs            0                       # number of cycles access was blocked
system.cpu1.itb_walker_cache.blocked::no_targets            0                       # number of cycles access was blocked
system.cpu1.itb_walker_cache.avg_blocked_cycles::no_mshrs          nan                       # average number of cycles each access was blocked
system.cpu1.itb_walker_cache.avg_blocked_cycles::no_targets          nan                       # average number of cycles each access was blocked
system.cpu1.itb_walker_cache.replacements            0                       # number of replacements
system.cpu1.itb_walker_cache.power_state.pwrStateResidencyTicks::UNDEFINED  14024188500                       # Cumulative time (in ticks) in various power states
system.cpu1.itb_walker_cache.tags.tagsinuse            0                       # Cycle average of tags in use
system.cpu1.itb_walker_cache.tags.total_refs            0                       # Total number of references to valid blocks.
system.cpu1.itb_walker_cache.tags.sampled_refs            0                       # Sample count of references to valid blocks.
system.cpu1.itb_walker_cache.tags.avg_refs          nan                       # Average number of references to valid blocks.
system.cpu1.itb_walker_cache.tags.warmup_cycle            0                       # Cycle when the warmup percentage was hit.
system.cpu1.itb_walker_cache.tags.tag_accesses            0                       # Number of tag accesses
system.cpu1.itb_walker_cache.tags.data_accesses            0                       # Number of data accesses
system.cpu1.itb_walker_cache.tags.power_state.pwrStateResidencyTicks::UNDEFINED  14024188500                       # Cumulative time (in ticks) in various power states
system.cpu1.dtb_walker_cache.blocked_cycles::no_mshrs            0                       # number of cycles access was blocked
system.cpu1.dtb_walker_cache.blocked_cycles::no_targets            0                       # number of cycles access was blocked
system.cpu1.dtb_walker_cache.blocked::no_mshrs            0                       # number of cycles access was blocked
system.cpu1.dtb_walker_cache.blocked::no_targets            0                       # number of cycles access was blocked
system.cpu1.dtb_walker_cache.avg_blocked_cycles::no_mshrs          nan                       # average number of cycles each access was blocked
system.cpu1.dtb_walker_cache.avg_blocked_cycles::no_targets          nan                       # average number of cycles each access was blocked
system.cpu1.dtb_walker_cache.replacements            0                       # number of replacements
system.cpu1.dtb_walker_cache.power_state.pwrStateResidencyTicks::UNDEFINED  14024188500                       # Cumulative time (in ticks) in various power states
system.cpu1.dtb_walker_cache.tags.tagsinuse            0                       # Cycle average of tags in use
system.cpu1.dtb_walker_cache.tags.total_refs            0                       # Total number of references to valid blocks.
system.cpu1.dtb_walker_cache.tags.sampled_refs            0                       # Sample count of references to valid blocks.
system.cpu1.dtb_walker_cache.tags.avg_refs          nan                       # Average number of references to valid blocks.
system.cpu1.dtb_walker_cache.tags.warmup_cycle            0                       # Cycle when the warmup percentage was hit.
system.cpu1.dtb_walker_cache.tags.tag_accesses            0                       # Number of tag accesses
system.cpu1.dtb_walker_cache.tags.data_accesses            0                       # Number of data accesses
system.cpu1.dtb_walker_cache.tags.power_state.pwrStateResidencyTicks::UNDEFINED  14024188500                       # Cumulative time (in ticks) in various power states
system.cpu1.dcache.demand_hits::.cpu1.data      1011976                       # number of demand (read+write) hits
system.cpu1.dcache.demand_hits::total         1011976                       # number of demand (read+write) hits
system.cpu1.dcache.overall_hits::.cpu1.data      1012033                       # number of overall hits
system.cpu1.dcache.overall_hits::total        1012033                       # number of overall hits
system.cpu1.dcache.demand_misses::.cpu1.data       137057                       # number of demand (read+write) misses
system.cpu1.dcache.demand_misses::total        137057                       # number of demand (read+write) misses
system.cpu1.dcache.overall_misses::.cpu1.data       137114                       # number of overall misses
system.cpu1.dcache.overall_misses::total       137114                       # number of overall misses
system.cpu1.dcache.demand_miss_latency::.cpu1.data   7061508000                       # number of demand (read+write) miss cycles
system.cpu1.dcache.demand_miss_latency::total   7061508000                       # number of demand (read+write) miss cycles
system.cpu1.dcache.overall_miss_latency::.cpu1.data   7061508000                       # number of overall miss cycles
system.cpu1.dcache.overall_miss_latency::total   7061508000                       # number of overall miss cycles
system.cpu1.dcache.demand_accesses::.cpu1.data      1149033                       # number of demand (read+write) accesses
system.cpu1.dcache.demand_accesses::total      1149033                       # number of demand (read+write) accesses
system.cpu1.dcache.overall_accesses::.cpu1.data      1149147                       # number of overall (read+write) accesses
system.cpu1.dcache.overall_accesses::total      1149147                       # number of overall (read+write) accesses
system.cpu1.dcache.demand_miss_rate::.cpu1.data     0.119280                       # miss rate for demand accesses
system.cpu1.dcache.demand_miss_rate::total     0.119280                       # miss rate for demand accesses
system.cpu1.dcache.overall_miss_rate::.cpu1.data     0.119318                       # miss rate for overall accesses
system.cpu1.dcache.overall_miss_rate::total     0.119318                       # miss rate for overall accesses
system.cpu1.dcache.demand_avg_miss_latency::.cpu1.data 51522.417680                       # average overall miss latency
system.cpu1.dcache.demand_avg_miss_latency::total 51522.417680                       # average overall miss latency
system.cpu1.dcache.overall_avg_miss_latency::.cpu1.data 51500.999169                       # average overall miss latency
system.cpu1.dcache.overall_avg_miss_latency::total 51500.999169                       # average overall miss latency
system.cpu1.dcache.blocked_cycles::no_mshrs            0                       # number of cycles access was blocked
system.cpu1.dcache.blocked_cycles::no_targets            0                       # number of cycles access was blocked
system.cpu1.dcache.blocked::no_mshrs                0                       # number of cycles access was blocked
system.cpu1.dcache.blocked::no_targets              0                       # number of cycles access was blocked
system.cpu1.dcache.avg_blocked_cycles::no_mshrs          nan                       # average number of cycles each access was blocked
system.cpu1.dcache.avg_blocked_cycles::no_targets          nan                       # average number of cycles each access was blocked
system.cpu1.dcache.writebacks::.writebacks        79585                       # number of writebacks
system.cpu1.dcache.writebacks::total            79585                       # number of writebacks
system.cpu1.dcache.demand_mshr_hits::.cpu1.data         9641                       # number of demand (read+write) MSHR hits
system.cpu1.dcache.demand_mshr_hits::total         9641                       # number of demand (read+write) MSHR hits
system.cpu1.dcache.overall_mshr_hits::.cpu1.data         9641                       # number of overall MSHR hits
system.cpu1.dcache.overall_mshr_hits::total         9641                       # number of overall MSHR hits
system.cpu1.dcache.demand_mshr_misses::.cpu1.data       127416                       # number of demand (read+write) MSHR misses
system.cpu1.dcache.demand_mshr_misses::total       127416                       # number of demand (read+write) MSHR misses
system.cpu1.dcache.overall_mshr_misses::.cpu1.data       127473                       # number of overall MSHR misses
system.cpu1.dcache.overall_mshr_misses::total       127473                       # number of overall MSHR misses
system.cpu1.dcache.demand_mshr_miss_latency::.cpu1.data   6388204500                       # number of demand (read+write) MSHR miss cycles
system.cpu1.dcache.demand_mshr_miss_latency::total   6388204500                       # number of demand (read+write) MSHR miss cycles
system.cpu1.dcache.overall_mshr_miss_latency::.cpu1.data   6389023500                       # number of overall MSHR miss cycles
system.cpu1.dcache.overall_mshr_miss_latency::total   6389023500                       # number of overall MSHR miss cycles
system.cpu1.dcache.demand_mshr_miss_rate::.cpu1.data     0.110890                       # mshr miss rate for demand accesses
system.cpu1.dcache.demand_mshr_miss_rate::total     0.110890                       # mshr miss rate for demand accesses
system.cpu1.dcache.overall_mshr_miss_rate::.cpu1.data     0.110928                       # mshr miss rate for overall accesses
system.cpu1.dcache.overall_mshr_miss_rate::total     0.110928                       # mshr miss rate for overall accesses
system.cpu1.dcache.demand_avg_mshr_miss_latency::.cpu1.data 50136.595875                       # average overall mshr miss latency
system.cpu1.dcache.demand_avg_mshr_miss_latency::total 50136.595875                       # average overall mshr miss latency
system.cpu1.dcache.overall_avg_mshr_miss_latency::.cpu1.data 50120.602010                       # average overall mshr miss latency
system.cpu1.dcache.overall_avg_mshr_miss_latency::total 50120.602010                       # average overall mshr miss latency
system.cpu1.dcache.replacements                127457                       # number of replacements
system.cpu1.dcache.ReadReq_hits::.cpu1.data       682127                       # number of ReadReq hits
system.cpu1.dcache.ReadReq_hits::total         682127                       # number of ReadReq hits
system.cpu1.dcache.ReadReq_misses::.cpu1.data       118119                       # number of ReadReq misses
system.cpu1.dcache.ReadReq_misses::total       118119                       # number of ReadReq misses
system.cpu1.dcache.ReadReq_miss_latency::.cpu1.data   5970686000                       # number of ReadReq miss cycles
system.cpu1.dcache.ReadReq_miss_latency::total   5970686000                       # number of ReadReq miss cycles
system.cpu1.dcache.ReadReq_accesses::.cpu1.data       800246                       # number of ReadReq accesses(hits+misses)
system.cpu1.dcache.ReadReq_accesses::total       800246                       # number of ReadReq accesses(hits+misses)
system.cpu1.dcache.ReadReq_miss_rate::.cpu1.data     0.147603                       # miss rate for ReadReq accesses
system.cpu1.dcache.ReadReq_miss_rate::total     0.147603                       # miss rate for ReadReq accesses
system.cpu1.dcache.ReadReq_avg_miss_latency::.cpu1.data 50548.057467                       # average ReadReq miss latency
system.cpu1.dcache.ReadReq_avg_miss_latency::total 50548.057467                       # average ReadReq miss latency
system.cpu1.dcache.ReadReq_mshr_hits::.cpu1.data         1466                       # number of ReadReq MSHR hits
[...]
system.mem_ctrls.rdPerTurnAround::gmean     24.250000                       # Reads before turning the bus around for writes
system.mem_ctrls.rdPerTurnAround::stdev     79.390750                       # Reads before turning the bus around for writes
system.mem_ctrls.rdPerTurnAround::0-31           1988     83.32%     83.32% # Reads before turning the bus around for writes
system.mem_ctrls.rdPerTurnAround::32-63           193      8.09%     91.41% # Reads before turning the bus around for writes
system.mem_ctrls.rdPerTurnAround::64-95            61      2.56%     93.96% # Reads before turning the bus around for writes
system.mem_ctrls.rdPerTurnAround::96-127           19      0.80%     94.76% # Reads before turning the bus around for writes
system.mem_ctrls.rdPerTurnAround::128-159           16      0.67%     95.43% # Reads before turning the bus around for writes
system.mem_ctrls.rdPerTurnAround::160-191            9      0.38%     95.81% # Reads before turning the bus around for writes
system.mem_ctrls.rdPerTurnAround::192-223            9      0.38%     96.19% # Reads before turning the bus around for writes
system.mem_ctrls.rdPerTurnAround::224-255            8      0.34%     96.52% # Reads before turning the bus around for writes
system.mem_ctrls.rdPerTurnAround::256-287           15      0.63%     97.15% # Reads before turning the bus around for writes
system.mem_ctrls.rdPerTurnAround::288-319            9      0.38%     97.53% # Reads before turning the bus around for writes
system.mem_ctrls.rdPerTurnAround::320-351           16      0.67%     98.20% # Reads before turning the bus around for writes
system.mem_ctrls.rdPerTurnAround::352-383            7      0.29%     98.49% # Reads before turning the bus around for writes
system.mem_ctrls.rdPerTurnAround::384-415            4      0.17%     98.66% # Reads before turning the bus around for writes
system.mem_ctrls.rdPerTurnAround::416-447            5      0.21%     98.87% # Reads before turning the bus around for writes
system.mem_ctrls.rdPerTurnAround::448-479            5      0.21%     99.08% # Reads before turning the bus around for writes
system.mem_ctrls.rdPerTurnAround::480-511            8      0.34%     99.41% # Reads before turning the bus around for writes
system.mem_ctrls.rdPerTurnAround::512-543            2      0.08%     99.50% # Reads before turning the bus around for writes
system.mem_ctrls.rdPerTurnAround::544-575            2      0.08%     99.58% # Reads before turning the bus around for writes
system.mem_ctrls.rdPerTurnAround::576-607            5      0.21%     99.79% # Reads before turning the bus around for writes
system.mem_ctrls.rdPerTurnAround::608-639            1      0.04%     99.83% # Reads before turning the bus around for writes
system.mem_ctrls.rdPerTurnAround::768-799            2      0.08%     99.92% # Reads before turning the bus around for writes
system.mem_ctrls.rdPerTurnAround::832-863            1      0.04%     99.96% # Reads before turning the bus around for writes
system.mem_ctrls.rdPerTurnAround::992-1023            1      0.04%    100.00% # Reads before turning the bus around for writes
system.mem_ctrls.rdPerTurnAround::total          2386                       # Reads before turning the bus around for writes
system.mem_ctrls.wrPerTurnAround::samples         2386                       # Writes before turning the bus around for reads
system.mem_ctrls.wrPerTurnAround::mean      16.805951                       # Writes before turning the bus around for reads
system.mem_ctrls.wrPerTurnAround::gmean     16.777931                       # Writes before turning the bus around for reads
system.mem_ctrls.wrPerTurnAround::stdev      0.979701                       # Writes before turning the bus around for reads
system.mem_ctrls.wrPerTurnAround::16             1379     57.80%     57.80% # Writes before turning the bus around for reads
system.mem_ctrls.wrPerTurnAround::17              131      5.49%     63.29% # Writes before turning the bus around for reads
system.mem_ctrls.wrPerTurnAround::18              838     35.12%     98.41% # Writes before turning the bus around for reads
system.mem_ctrls.wrPerTurnAround::19               36      1.51%     99.92% # Writes before turning the bus around for reads
system.mem_ctrls.wrPerTurnAround::20                2      0.08%    100.00% # Writes before turning the bus around for reads
system.mem_ctrls.wrPerTurnAround::total          2386                       # Writes before turning the bus around for reads
system.mem_ctrls.bytesReadDRAM                6044608                       # Total number of bytes read from DRAM
system.mem_ctrls.bytesReadWrQ                  122496                       # Total number of bytes read from write queue
system.mem_ctrls.bytesWritten                 2566336                       # Total number of bytes written to DRAM
system.mem_ctrls.bytesReadSys                 6167104                       # Total read bytes from the system interface side
system.mem_ctrls.bytesWrittenSys              2570752                       # Total written bytes from the system interface side
system.mem_ctrls.avgRdBW                       431.01                       # Average DRAM read bandwidth in MiByte/s
system.mem_ctrls.avgWrBW                       182.99                       # Average achieved write bandwidth in MiByte/s
system.mem_ctrls.avgRdBWSys                    439.75                       # Average system read bandwidth in MiByte/s
system.mem_ctrls.avgWrBWSys                    183.31                       # Average system write bandwidth in MiByte/s
system.mem_ctrls.peakBW                      12800.00                       # Theoretical peak bandwidth in MiByte/s
system.mem_ctrls.busUtil                         4.80                       # Data bus utilization in percentage
system.mem_ctrls.busUtilRead                     3.37                       # Data bus utilization in percentage for reads
system.mem_ctrls.busUtilWrite                    1.43                       # Data bus utilization in percentage for writes
system.mem_ctrls.totGap                   14024168000                       # Total gap between requests
system.mem_ctrls.avgGap                     102719.33                       # Average gap between requests
system.mem_ctrls.masterReadBytes::.cpu0.inst       159872                       # Per-master bytes read from memory
system.mem_ctrls.masterReadBytes::.cpu0.data       973312                       # Per-master bytes read from memory
system.mem_ctrls.masterReadBytes::.cpu1.inst       311744                       # Per-master bytes read from memory
system.mem_ctrls.masterReadBytes::.cpu1.data      4599680                       # Per-master bytes read from memory
system.mem_ctrls.masterWriteBytes::.writebacks      2566336                       # Per-master bytes write to memory
system.mem_ctrls.masterReadRate::.cpu0.inst 11399732.683285025880                       # Per-master bytes read from memory rate (Bytes/sec)
system.mem_ctrls.masterReadRate::.cpu0.data 69402375.759567126632                       # Per-master bytes read from memory rate (Bytes/sec)
system.mem_ctrls.masterReadRate::.cpu1.inst 22229022.378014955670                       # Per-master bytes read from memory rate (Bytes/sec)
system.mem_ctrls.masterReadRate::.cpu1.data 327981900.699637651443                       # Per-master bytes read from memory rate (Bytes/sec)
system.mem_ctrls.masterWriteRate::.writebacks 182993547.184566169977                       # Per-master bytes write to memory rate (Bytes/sec)
system.mem_ctrls.masterReadAccesses::.cpu0.inst         2498                       # Per-master read serviced memory accesses
system.mem_ctrls.masterReadAccesses::.cpu0.data        15341                       # Per-master read serviced memory accesses
system.mem_ctrls.masterReadAccesses::.cpu1.inst         4871                       # Per-master read serviced memory accesses
system.mem_ctrls.masterReadAccesses::.cpu1.data        73651                       # Per-master read serviced memory accesses
system.mem_ctrls.masterWriteAccesses::.writebacks        40168                       # Per-master write serviced memory accesses
system.mem_ctrls.masterReadTotalLat::.cpu0.inst     73755500                       # Per-master read total memory access latency
system.mem_ctrls.masterReadTotalLat::.cpu0.data    492398000                       # Per-master read total memory access latency
system.mem_ctrls.masterReadTotalLat::.cpu1.inst    149888500                       # Per-master read total memory access latency
system.mem_ctrls.masterReadTotalLat::.cpu1.data   1874580000                       # Per-master read total memory access latency
system.mem_ctrls.masterWriteTotalLat::.writebacks 335903828250                       # Per-master write total memory access latency
system.mem_ctrls.masterReadAvgLat::.cpu0.inst     29525.82                       # Per-master read average memory access latency
system.mem_ctrls.masterReadAvgLat::.cpu0.data     32096.86                       # Per-master read average memory access latency
system.mem_ctrls.masterReadAvgLat::.cpu1.inst     30771.61                       # Per-master read average memory access latency
system.mem_ctrls.masterReadAvgLat::.cpu1.data     25452.20                       # Per-master read average memory access latency
system.mem_ctrls.masterWriteAvgLat::.writebacks   8362473.32                       # Per-master write average memory access latency
system.mem_ctrls.pageHitRate                    85.78                       # Row buffer hit rate, read and write combined
system.mem_ctrls.rank1.actEnergy             72592380                       # Energy for activate commands per rank (pJ)
system.mem_ctrls.rank1.preEnergy             38579970                       # Energy for precharge commands per rank (pJ)
system.mem_ctrls.rank1.readEnergy           388680180                       # Energy for read commands per rank (pJ)
system.mem_ctrls.rank1.writeEnergy          116191980                       # Energy for write commands per rank (pJ)
system.mem_ctrls.rank1.refreshEnergy     1106966640.000000                       # Energy for refresh commands per rank (pJ)
system.mem_ctrls.rank1.actBackEnergy       5179873860                       # Energy for active background per rank (pJ)
system.mem_ctrls.rank1.preBackEnergy       1023289440                       # Energy for precharge background per rank (pJ)
system.mem_ctrls.rank1.actPowerDownEnergy            0                       # Energy for active power-down per rank (pJ)
system.mem_ctrls.rank1.prePowerDownEnergy            0                       # Energy for precharge power-down per rank (pJ)
system.mem_ctrls.rank1.selfRefreshEnergy            0                       # Energy for self refresh per rank (pJ)
system.mem_ctrls.rank1.totalEnergy         7926174450                       # Total energy per rank (pJ)
system.mem_ctrls.rank1.averagePower        565.178830                       # Core power per rank (mW)
system.mem_ctrls.rank1.totalIdleTime                0                       # Total Idle time Per DRAM Rank
system.mem_ctrls.rank1.memoryStateTime::IDLE   2604527000                       # Time in different power states
system.mem_ctrls.rank1.memoryStateTime::REF    468260000                       # Time in different power states
system.mem_ctrls.rank1.memoryStateTime::SREF            0                       # Time in different power states
system.mem_ctrls.rank1.memoryStateTime::PRE_PDN            0                       # Time in different power states
system.mem_ctrls.rank1.memoryStateTime::ACT  10951401500                       # Time in different power states
system.mem_ctrls.rank1.memoryStateTime::ACT_PDN            0                       # Time in different power states
system.mem_ctrls.rank0.actEnergy             63860160                       # Energy for activate commands per rank (pJ)
system.mem_ctrls.rank0.preEnergy             33942480                       # Energy for precharge commands per rank (pJ)
system.mem_ctrls.rank0.readEnergy           285671400                       # Energy for read commands per rank (pJ)
system.mem_ctrls.rank0.writeEnergy           93124800                       # Energy for write commands per rank (pJ)
system.mem_ctrls.rank0.refreshEnergy     1106966640.000000                       # Energy for refresh commands per rank (pJ)
system.mem_ctrls.rank0.actBackEnergy       4870847790                       # Energy for active background per rank (pJ)
system.mem_ctrls.rank0.preBackEnergy       1283521920                       # Energy for precharge background per rank (pJ)
system.mem_ctrls.rank0.actPowerDownEnergy            0                       # Energy for active power-down per rank (pJ)
system.mem_ctrls.rank0.prePowerDownEnergy            0                       # Energy for precharge power-down per rank (pJ)
system.mem_ctrls.rank0.selfRefreshEnergy            0                       # Energy for self refresh per rank (pJ)
system.mem_ctrls.rank0.totalEnergy         7737935190                       # Total energy per rank (pJ)
system.mem_ctrls.rank0.averagePower        551.756359                       # Core power per rank (mW)
system.mem_ctrls.rank0.totalIdleTime                0                       # Total Idle time Per DRAM Rank
system.mem_ctrls.rank0.memoryStateTime::IDLE   3285959000                       # Time in different power states
system.mem_ctrls.rank0.memoryStateTime::REF    468260000                       # Time in different power states
system.mem_ctrls.rank0.memoryStateTime::SREF            0                       # Time in different power states
system.mem_ctrls.rank0.memoryStateTime::PRE_PDN            0                       # Time in different power states
system.mem_ctrls.rank0.memoryStateTime::ACT  10269969500                       # Time in different power states
system.mem_ctrls.rank0.memoryStateTime::ACT_PDN            0                       # Time in different power states
system.mem_ctrls.power_state.pwrStateResidencyTicks::UNDEFINED  14024188500                       # Cumulative time (in ticks) in various power states
system.cpu_clk_domain.clock                       500                       # Clock period in ticks
system.tol2bus.trans_dist::ReadResp            361775                       # Transaction distribution
system.tol2bus.trans_dist::WritebackDirty       180379                       # Transaction distribution
system.tol2bus.trans_dist::WritebackClean        78651                       # Transaction distribution
system.tol2bus.trans_dist::CleanEvict          264074                       # Transaction distribution
system.tol2bus.trans_dist::ReadExReq            65767                       # Transaction distribution
system.tol2bus.trans_dist::ReadExResp           65767                       # Transaction distribution
system.tol2bus.trans_dist::ReadCleanReq         78683                       # Transaction distribution
system.tol2bus.trans_dist::ReadSharedReq       283092                       # Transaction distribution
system.tol2bus.pkt_count_system.cpu0.icache.mem_side::system.l2.cpu_side        41504                       # Packet count per connected master and slave (bytes)
system.tol2bus.pkt_count_system.cpu0.dcache.mem_side::system.l2.cpu_side       664142                       # Packet count per connected master and slave (bytes)
system.tol2bus.pkt_count_system.cpu1.icache.mem_side::system.l2.cpu_side       194513                       # Packet count per connected master and slave (bytes)
system.tol2bus.pkt_count_system.cpu1.dcache.mem_side::system.l2.cpu_side       382403                       # Packet count per connected master and slave (bytes)
system.tol2bus.pkt_count::total               1282562                       # Packet count per connected master and slave (bytes)
system.tol2bus.pkt_size_system.cpu0.icache.mem_side::system.l2.cpu_side      1770496                       # Cumulative packet size per connected master and slave (bytes)
system.tol2bus.pkt_size_system.cpu0.dcache.mem_side::system.l2.cpu_side     18048768                       # Cumulative packet size per connected master and slave (bytes)
system.tol2bus.pkt_size_system.cpu1.icache.mem_side::system.l2.cpu_side      8298880                       # Cumulative packet size per connected master and slave (bytes)
system.tol2bus.pkt_size_system.cpu1.dcache.mem_side::system.l2.cpu_side     13251712                       # Cumulative packet size per connected master and slave (bytes)
system.tol2bus.pkt_size::total               41369856                       # Cumulative packet size per connected master and slave (bytes)
system.tol2bus.snoops                           95626                       # Total snoops (count)
system.tol2bus.snoopTraffic                   2570752                       # Total snoop traffic (bytes)
system.tol2bus.snoop_fanout::samples           523168                       # Request fanout histogram
system.tol2bus.snoop_fanout::mean            0.000583                       # Request fanout histogram
system.tol2bus.snoop_fanout::stdev           0.024138                       # Request fanout histogram
system.tol2bus.snoop_fanout::underflows             0      0.00%      0.00% # Request fanout histogram
system.tol2bus.snoop_fanout::0                 522863     99.94%     99.94% # Request fanout histogram
system.tol2bus.snoop_fanout::1                    305      0.06%    100.00% # Request fanout histogram
system.tol2bus.snoop_fanout::2                      0      0.00%    100.00% # Request fanout histogram
system.tol2bus.snoop_fanout::3                      0      0.00%    100.00% # Request fanout histogram
system.tol2bus.snoop_fanout::4                      0      0.00%    100.00% # Request fanout histogram
system.tol2bus.snoop_fanout::5                      0      0.00%    100.00% # Request fanout histogram
system.tol2bus.snoop_fanout::6                      0      0.00%    100.00% # Request fanout histogram
system.tol2bus.snoop_fanout::7                      0      0.00%    100.00% # Request fanout histogram
system.tol2bus.snoop_fanout::8                      0      0.00%    100.00% # Request fanout histogram
system.tol2bus.snoop_fanout::overflows              0      0.00%    100.00% # Request fanout histogram
system.tol2bus.snoop_fanout::min_value              0                       # Request fanout histogram
system.tol2bus.snoop_fanout::max_value              1                       # Request fanout histogram
system.tol2bus.snoop_fanout::total             523168                       # Request fanout histogram
system.tol2bus.reqLayer0.occupancy          646372000                       # Layer occupancy (ticks)
system.tol2bus.reqLayer0.utilization              4.6                       # Layer utilization (%)
system.tol2bus.respLayer5.occupancy         191518381                       # Layer occupancy (ticks)
system.tol2bus.respLayer5.utilization             1.4                       # Layer utilization (%)
system.tol2bus.respLayer4.occupancy          97295937                       # Layer occupancy (ticks)
system.tol2bus.respLayer4.utilization             0.7                       # Layer utilization (%)
system.tol2bus.respLayer1.occupancy         332122413                       # Layer occupancy (ticks)
system.tol2bus.respLayer1.utilization             2.4                       # Layer utilization (%)
system.tol2bus.respLayer0.occupancy          20775469                       # Layer occupancy (ticks)
system.tol2bus.respLayer0.utilization             0.1                       # Layer utilization (%)
system.tol2bus.power_state.pwrStateResidencyTicks::UNDEFINED  14024188500                       # Cumulative time (in ticks) in various power states

---------- End Simulation Statistics   ----------
