
---------- Begin Simulation Statistics ----------
final_tick                                14332545500                       # Number of ticks from beginning of simulation (restored from checkpoints and never reset)
host_inst_rate                                 246415                       # Simulator instruction rate (inst/s)
host_mem_usage                                4436628                       # Number of bytes of host memory used
host_op_rate                                   412276                       # Simulator op (including micro ops) rate (op/s)
host_seconds                                    68.70                       # Real time elapsed on the host
host_tick_rate                              208631281                       # Simulator tick rate (ticks/s)
sim_freq                                 1000000000000                       # Frequency of simulated ticks
sim_insts                                    16928178                       # Number of instructions simulated
sim_ops                                      28322552                       # Number of ops (including micro ops) simulated
sim_seconds                                  0.014333                       # Number of seconds simulated
sim_ticks                                 14332545500                       # Number of ticks simulated
system.cpu0.branchPred.BTBCorrect                   0                       # Number of correct BTB predictions (this stat may not work properly.
system.cpu0.branchPred.BTBHitPct                  nan                       # BTB Hit Percentage
system.cpu0.branchPred.BTBHits                      0                       # Number of BTB hits
system.cpu0.branchPred.BTBLookups                   0                       # Number of BTB lookups
system.cpu0.branchPred.RASInCorrect                 0                       # Number of incorrect RAS predictions.
system.cpu0.branchPred.condIncorrect               37                       # Number of conditional branches incorrect
system.cpu0.branchPred.condPredicted               83                       # Number of conditional branches predicted
system.cpu0.branchPred.indirectHits                 0                       # Number of indirect target hits.
system.cpu0.branchPred.indirectLookups             24                       # Number of indirect predictor lookups.
system.cpu0.branchPred.indirectMisses              24                       # Number of indirect misses.
system.cpu0.branchPred.lookups                     83                       # Number of BP lookups
system.cpu0.branchPred.usedRAS                      0                       # Number of times the RAS was used to get a target.
system.cpu0.branchPredindirectMispredicted           10                       # Number of mispredicted indirect branches.
system.cpu0.committedInsts                    6928178                       # Number of instructions committed
system.cpu0.committedOps                     11394621                       # Number of ops (including micro ops) committed
system.cpu0.cpi                              4.137465                       # CPI: cycles per instruction
system.cpu0.discardedOps                      3585939                       # Number of ops (including micro ops) which were discarded before commit
system.cpu0.dtb.rdAccesses                    1085693                       # TLB accesses on read requests
system.cpu0.dtb.rdMisses                         2562                       # TLB misses on read requests
system.cpu0.dtb.wrAccesses                     467124                       # TLB accesses on write requests
system.cpu0.dtb.wrMisses                           86                       # TLB misses on write requests
system.cpu0.fetch2.amo_instructions                 0                       # Number of memory atomic instructions successfully decoded
system.cpu0.fetch2.fp_instructions                  0                       # Number of floating point instructions successfully decoded
system.cpu0.fetch2.int_instructions                 9                       # Number of integer instructions successfully decoded
system.cpu0.fetch2.load_instructions                0                       # Number of memory load instructions successfully decoded
system.cpu0.fetch2.store_instructions               0                       # Number of memory store instructions successfully decoded
system.cpu0.fetch2.vec_instructions                 0                       # Number of SIMD instructions successfully decoded
system.cpu0.idleCycles                        5876490                       # Total number of cycles that the object has spent stopped
system.cpu0.ipc                              0.241694                       # IPC: instructions per cycle
system.cpu0.itb.rdAccesses                          0                       # TLB accesses on read requests
system.cpu0.itb.rdMisses                            0                       # TLB misses on read requests
system.cpu0.itb.wrAccesses                    3299711                       # TLB accesses on write requests
system.cpu0.itb.wrMisses                          255                       # TLB misses on write requests
system.cpu0.numCycles                        28665091                       # number of cpu cycles simulated
system.cpu0.numFetchSuspends                        0                       # Number of times Execute suspended instruction fetching
system.cpu0.numWorkItemsCompleted                   0                       # number of work items this cpu completed
system.cpu0.numWorkItemsStarted                     0                       # number of work items this cpu started
system.cpu0.op_class_0::No_OpClass               8459      0.07%      0.07% # Class of committed instruction
system.cpu0.op_class_0::IntAlu                9695645     85.09%     85.16% # Class of committed instruction
system.cpu0.op_class_0::IntMult                  6224      0.05%     85.22% # Class of committed instruction
system.cpu0.op_class_0::IntDiv                   1578      0.01%     85.23% # Class of committed instruction
system.cpu0.op_class_0::FloatAdd               139604      1.23%     86.46% # Class of committed instruction
system.cpu0.op_class_0::FloatCmp                    0      0.00%     86.46% # Class of committed instruction
system.cpu0.op_class_0::FloatCvt                  144      0.00%     86.46% # Class of committed instruction
system.cpu0.op_class_0::FloatMult                   0      0.00%     86.46% # Class of committed instruction
system.cpu0.op_class_0::FloatMultAcc                0      0.00%     86.46% # Class of committed instruction
system.cpu0.op_class_0::FloatDiv                    0      0.00%     86.46% # Class of committed instruction
system.cpu0.op_class_0::FloatMisc                   0      0.00%     86.46% # Class of committed instruction
system.cpu0.op_class_0::FloatSqrt                   0      0.00%     86.46% # Class of committed instruction
system.cpu0.op_class_0::SimdAdd                  1170      0.01%     86.47% # Class of committed instruction
system.cpu0.op_class_0::SimdAddAcc                  0      0.00%     86.47% # Class of committed instruction
system.cpu0.op_class_0::SimdAlu                  1323      0.01%     86.48% # Class of committed instruction
system.cpu0.op_class_0::SimdCmp                     6      0.00%     86.48% # Class of committed instruction
system.cpu0.op_class_0::SimdCvt                  1838      0.02%     86.50% # Class of committed instruction
system.cpu0.op_class_0::SimdMisc                17658      0.15%     86.65% # Class of committed instruction
system.cpu0.op_class_0::SimdMult                    0      0.00%     86.65% # Class of committed instruction
system.cpu0.op_class_0::SimdMultAcc                 0      0.00%     86.65% # Class of committed instruction
system.cpu0.op_class_0::SimdShift                 408      0.00%     86.66% # Class of committed instruction
system.cpu0.op_class_0::SimdShiftAcc                0      0.00%     86.66% # Class of committed instruction
system.cpu0.op_class_0::SimdDiv                     0      0.00%     86.66% # Class of committed instruction
system.cpu0.op_class_0::SimdSqrt                    0      0.00%     86.66% # Class of committed instruction
system.cpu0.op_class_0::SimdFloatAdd            28658      0.25%     86.91% # Class of committed instruction
system.cpu0.op_class_0::SimdFloatAlu                0      0.00%     86.91% # Class of committed instruction
system.cpu0.op_class_0::SimdFloatCmp                0      0.00%     86.91% # Class of committed instruction
system.cpu0.op_class_0::SimdFloatCvt            34832      0.31%     87.21% # Class of committed instruction
system.cpu0.op_class_0::SimdFloatDiv               22      0.00%     87.21% # Class of committed instruction
system.cpu0.op_class_0::SimdFloatMisc               0      0.00%     87.21% # Class of committed instruction
system.cpu0.op_class_0::SimdFloatMult           49128      0.43%     87.64% # Class of committed instruction
system.cpu0.op_class_0::SimdFloatMultAcc            0      0.00%     87.64% # Class of committed instruction
system.cpu0.op_class_0::SimdFloatSqrt               0      0.00%     87.64% # Class of committed instruction
system.cpu0.op_class_0::SimdReduceAdd               0      0.00%     87.64% # Class of committed instruction
system.cpu0.op_class_0::SimdReduceAlu               0      0.00%     87.64% # Class of committed instruction
system.cpu0.op_class_0::SimdReduceCmp               0      0.00%     87.64% # Class of committed instruction
system.cpu0.op_class_0::SimdFloatReduceAdd            0      0.00%     87.64% # Class of committed instruction
system.cpu0.op_class_0::SimdFloatReduceCmp            0      0.00%     87.64% # Class of committed instruction
system.cpu0.op_class_0::SimdAes                     0      0.00%     87.64% # Class of committed instruction
system.cpu0.op_class_0::SimdAesMix                  0      0.00%     87.64% # Class of committed instruction
system.cpu0.op_class_0::SimdSha1Hash                0      0.00%     87.64% # Class of committed instruction
system.cpu0.op_class_0::SimdSha1Hash2               0      0.00%     87.64% # Class of committed instruction
system.cpu0.op_class_0::SimdSha256Hash              0      0.00%     87.64% # Class of committed instruction
system.cpu0.op_class_0::SimdSha256Hash2             0      0.00%     87.64% # Class of committed instruction
system.cpu0.op_class_0::SimdShaSigma2               0      0.00%     87.64% # Class of committed instruction
system.cpu0.op_class_0::SimdShaSigma3               0      0.00%     87.64% # Class of committed instruction
system.cpu0.op_class_0::SimdPredAlu                 0      0.00%     87.64% # Class of committed instruction
system.cpu0.op_class_0::MemRead                881089      7.73%     95.38% # Class of committed instruction
system.cpu0.op_class_0::MemWrite               400632      3.52%     98.89% # Class of committed instruction
system.cpu0.op_class_0::FloatMemRead            80716      0.71%     99.60% # Class of committed instruction
system.cpu0.op_class_0::FloatMemWrite           45487      0.40%    100.00% # Class of committed instruction
system.cpu0.op_class_0::IprAccess                   0      0.00%    100.00% # Class of committed instruction
system.cpu0.op_class_0::InstPrefetch                0      0.00%    100.00% # Class of committed instruction
system.cpu0.op_class_0::total                11394621                       # Class of committed instruction
system.cpu0.tickCycles                       22788601                       # Number of cycles that the object actually ticked
system.cpu0.workload.numSyscalls                   37                       # Number of system calls
system.cpu1.branchPred.BTBCorrect                   0                       # Number of correct BTB predictions (this stat may not work properly.
system.cpu1.branchPred.BTBHitPct                  nan                       # BTB Hit Percentage
system.cpu1.branchPred.BTBHits                      0                       # Number of BTB hits
system.cpu1.branchPred.BTBLookups                   0                       # Number of BTB lookups
system.cpu1.branchPred.RASInCorrect                 0                       # Number of incorrect RAS predictions.
system.cpu1.branchPred.condIncorrect               43                       # Number of conditional branches incorrect
system.cpu1.branchPred.condPredicted               90                       # Number of conditional branches predicted
system.cpu1.branchPred.indirectHits                 0                       # Number of indirect target hits.
system.cpu1.branchPred.indirectLookups             24                       # Number of indirect predictor lookups.
system.cpu1.branchPred.indirectMisses              24                       # Number of indirect misses.
system.cpu1.branchPred.lookups                     90                       # Number of BP lookups
system.cpu1.branchPred.usedRAS                      0                       # Number of times the RAS was used to get a target.
system.cpu1.branchPredindirectMispredicted           15                       # Number of mispredicted indirect branches.
system.cpu1.committedInsts                   10000000                       # Number of instructions committed
system.cpu1.committedOps                     16927931                       # Number of ops (including micro ops) committed
system.cpu1.cpi                              2.866509                       # CPI: cycles per instruction
system.cpu1.discardedOps                      2871784                       # Number of ops (including micro ops) which were discarded before commit
system.cpu1.dtb.rdAccesses                    4157402                       # TLB accesses on read requests
system.cpu1.dtb.rdMisses                         2422                       # TLB misses on read requests
system.cpu1.dtb.wrAccesses                    2003150                       # TLB accesses on write requests
system.cpu1.dtb.wrMisses                         1713                       # TLB misses on write requests
system.cpu1.fetch2.amo_instructions                 0                       # Number of memory atomic instructions successfully decoded
system.cpu1.fetch2.fp_instructions                  0                       # Number of floating point instructions successfully decoded
system.cpu1.fetch2.int_instructions                 8                       # Number of integer instructions successfully decoded
system.cpu1.fetch2.load_instructions                0                       # Number of memory load instructions successfully decoded
system.cpu1.fetch2.store_instructions               0                       # Number of memory store instructions successfully decoded
system.cpu1.fetch2.vec_instructions                 0                       # Number of SIMD instructions successfully decoded
system.cpu1.idleCycles                        5734873                       # Total number of cycles that the object has spent stopped
system.cpu1.ipc                              0.348856                       # IPC: instructions per cycle
system.cpu1.itb.rdAccesses                          0                       # TLB accesses on read requests
system.cpu1.itb.rdMisses                            0                       # TLB misses on read requests
system.cpu1.itb.wrAccesses                    2443057                       # TLB accesses on write requests
system.cpu1.itb.wrMisses                          209                       # TLB misses on write requests
system.cpu1.numCycles                        28665091                       # number of cpu cycles simulated
system.cpu1.numFetchSuspends                        0                       # Number of times Execute suspended instruction fetching
system.cpu1.numWorkItemsCompleted                   0                       # number of work items this cpu completed
system.cpu1.numWorkItemsStarted                     0                       # number of work items this cpu started
system.cpu1.op_class_0::No_OpClass              31838      0.19%      0.19% # Class of committed instruction
system.cpu1.op_class_0::IntAlu               11081465     65.46%     65.65% # Class of committed instruction
system.cpu1.op_class_0::IntMult                    77      0.00%     65.65% # Class of committed instruction
system.cpu1.op_class_0::IntDiv                   1369      0.01%     65.66% # Class of committed instruction
system.cpu1.op_class_0::FloatAdd                  223      0.00%     65.66% # Class of committed instruction
system.cpu1.op_class_0::FloatCmp                    0      0.00%     65.66% # Class of committed instruction
system.cpu1.op_class_0::FloatCvt                  176      0.00%     65.66% # Class of committed instruction
system.cpu1.op_class_0::FloatMult                   0      0.00%     65.66% # Class of committed instruction
system.cpu1.op_class_0::FloatMultAcc                0      0.00%     65.66% # Class of committed instruction
system.cpu1.op_class_0::FloatDiv                    0      0.00%     65.66% # Class of committed instruction
system.cpu1.op_class_0::FloatMisc                   0      0.00%     65.66% # Class of committed instruction
system.cpu1.op_class_0::FloatSqrt                   0      0.00%     65.66% # Class of committed instruction
system.cpu1.op_class_0::SimdAdd                   952      0.01%     65.67% # Class of committed instruction
system.cpu1.op_class_0::SimdAddAcc                  0      0.00%     65.67% # Class of committed instruction
system.cpu1.op_class_0::SimdAlu                   988      0.01%     65.67% # Class of committed instruction
system.cpu1.op_class_0::SimdCmp                     0      0.00%     65.67% # Class of committed instruction
system.cpu1.op_class_0::SimdCvt                  1344      0.01%     65.68% # Class of committed instruction
system.cpu1.op_class_0::SimdMisc                  912      0.01%     65.69% # Class of committed instruction
system.cpu1.op_class_0::SimdMult                    0      0.00%     65.69% # Class of committed instruction
system.cpu1.op_class_0::SimdMultAcc                 0      0.00%     65.69% # Class of committed instruction
system.cpu1.op_class_0::SimdShift                 333      0.00%     65.69% # Class of committed instruction
system.cpu1.op_class_0::SimdShiftAcc                0      0.00%     65.69% # Class of committed instruction
system.cpu1.op_class_0::SimdDiv                     0      0.00%     65.69% # Class of committed instruction
system.cpu1.op_class_0::SimdSqrt                    0      0.00%     65.69% # Class of committed instruction
system.cpu1.op_class_0::SimdFloatAdd                0      0.00%     65.69% # Class of committed instruction
system.cpu1.op_class_0::SimdFloatAlu                0      0.00%     65.69% # Class of committed instruction
system.cpu1.op_class_0::SimdFloatCmp                0      0.00%     65.69% # Class of committed instruction
system.cpu1.op_class_0::SimdFloatCvt                0      0.00%     65.69% # Class of committed instruction
system.cpu1.op_class_0::SimdFloatDiv                0      0.00%     65.69% # Class of committed instruction
system.cpu1.op_class_0::SimdFloatMisc               0      0.00%     65.69% # Class of committed instruction
system.cpu1.op_class_0::SimdFloatMult               0      0.00%     65.69% # Class of committed instruction
system.cpu1.op_class_0::SimdFloatMultAcc            0      0.00%     65.69% # Class of committed instruction
system.cpu1.op_class_0::SimdFloatSqrt               0      0.00%     65.69% # Class of committed instruction
system.cpu1.op_class_0::SimdReduceAdd               0      0.00%     65.69% # Class of committed instruction
system.cpu1.op_class_0::SimdReduceAlu               0      0.00%     65.69% # Class of committed instruction
system.cpu1.op_class_0::SimdReduceCmp               0      0.00%     65.69% # Class of committed instruction
system.cpu1.op_class_0::SimdFloatReduceAdd            0      0.00%     65.69% # Class of committed instruction
system.cpu1.op_class_0::SimdFloatReduceCmp            0      0.00%     65.69% # Class of committed instruction
system.cpu1.op_class_0::SimdAes                     0      0.00%     65.69% # Class of committed instruction
system.cpu1.op_class_0::SimdAesMix                  0      0.00%     65.69% # Class of committed instruction
system.cpu1.op_class_0::SimdSha1Hash                0      0.00%     65.69% # Class of committed instruction
system.cpu1.op_class_0::SimdSha1Hash2               0      0.00%     65.69% # Class of committed instruction
system.cpu1.op_class_0::SimdSha256Hash              0      0.00%     65.69% # Class of committed instruction
system.cpu1.op_class_0::SimdSha256Hash2             0      0.00%     65.69% # Class of committed instruction
system.cpu1.op_class_0::SimdShaSigma2               0      0.00%     65.69% # Class of committed instruction
system.cpu1.op_class_0::SimdShaSigma3               0      0.00%     65.69% # Class of committed instruction
system.cpu1.op_class_0::SimdPredAlu                 0      0.00%     65.69% # Class of committed instruction
system.cpu1.op_class_0::MemRead               3833806     22.65%     88.34% # Class of committed instruction
system.cpu1.op_class_0::MemWrite              1911134     11.29%     99.63% # Class of committed instruction
system.cpu1.op_class_0::FloatMemRead            31918      0.19%     99.81% # Class of committed instruction
system.cpu1.op_class_0::FloatMemWrite           31396      0.19%    100.00% # Class of committed instruction
system.cpu1.op_class_0::IprAccess                   0      0.00%    100.00% # Class of committed instruction
system.cpu1.op_class_0::InstPrefetch                0      0.00%    100.00% # Class of committed instruction
system.cpu1.op_class_0::total                16927931                       # Class of committed instruction
system.cpu1.tickCycles                       22930218                       # Number of cycles that the object actually ticked
system.cpu1.workload.numSyscalls                   43                       # Number of system calls
system.membus.snoop_filter.hit_multi_requests            0                       # Number of requests hitting in the snoop filter with multiple (>1) holders of the requested data.
system.membus.snoop_filter.hit_multi_snoops            0                       # Number of snoops hitting in the snoop filter with multiple (>1) holders of the requested data.
system.membus.snoop_filter.hit_single_requests        36746                       # Number of requests hitting in the snoop filter with a single holder of the requested data.
system.membus.snoop_filter.hit_single_snoops            0                       # Number of snoops hitting in the snoop filter with a single holder of the requested data.
system.membus.snoop_filter.tot_requests         74517                       # Total number of requests made to the snoop filter.
system.membus.snoop_filter.tot_snoops               0                       # Total number of snoops made to the snoop filter.
system.tol2bus.snoop_filter.hit_multi_requests            1                       # Number of requests hitting in the snoop filter with multiple (>1) holders of the requested data.
system.tol2bus.snoop_filter.hit_multi_snoops            0                       # Number of snoops hitting in the snoop filter with multiple (>1) holders of the requested data.
system.tol2bus.snoop_filter.hit_single_requests       494898                       # Number of requests hitting in the snoop filter with a single holder of the requested data.
system.tol2bus.snoop_filter.hit_single_snoops         2139                       # Number of snoops hitting in the snoop filter with a single holder of the requested data.
system.tol2bus.snoop_filter.tot_requests       989860                       # Total number of requests made to the snoop filter.
system.tol2bus.snoop_filter.tot_snoops           2139                       # Total number of snoops made to the snoop filter.
system.membus.trans_dist::ReadResp              23724                       # Transaction distribution
system.membus.trans_dist::WritebackDirty        17005                       # Transaction distribution
system.membus.trans_dist::CleanEvict            19741                       # Transaction distribution
system.membus.trans_dist::ReadExReq             14047                       # Transaction distribution
system.membus.trans_dist::ReadExResp            14047                       # Transaction distribution
system.membus.trans_dist::ReadSharedReq         23724                       # Transaction distribution
system.membus.pkt_count_system.l2.mem_side::system.mem_ctrls.port       112288                       # Packet count per connected master and slave (bytes)
system.membus.pkt_count_system.l2.mem_side::total       112288                       # Packet count per connected master and slave (bytes)
system.membus.pkt_count::total                 112288                       # Packet count per connected master and slave (bytes)
system.membus.pkt_size_system.l2.mem_side::system.mem_ctrls.port      3505664                       # Cumulative packet size per connected master and slave (bytes)
system.membus.pkt_size_system.l2.mem_side::total      3505664                       # Cumulative packet size per connected master and slave (bytes)
system.membus.pkt_size::total                 3505664                       # Cumulative packet size per connected master and slave (bytes)
system.membus.snoops                                0                       # Total snoops (count)
system.membus.snoopTraffic                          0                       # Total snoop traffic (bytes)
system.membus.snoop_fanout::samples             37771                       # Request fanout histogram
system.membus.snoop_fanout::mean                    0                       # Request fanout histogram
system.membus.snoop_fanout::stdev                   0                       # Request fanout histogram
system.membus.snoop_fanout::underflows              0      0.00%      0.00% # Request fanout histogram
system.membus.snoop_fanout::0                   37771    100.00%    100.00% # Request fanout histogram
system.membus.snoop_fanout::1                       0      0.00%    100.00% # Request fanout histogram
system.membus.snoop_fanout::overflows               0      0.00%    100.00% # Request fanout histogram
system.membus.snoop_fanout::min_value               0                       # Request fanout histogram
system.membus.snoop_fanout::max_value               0                       # Request fanout histogram
system.membus.snoop_fanout::total               37771                       # Request fanout histogram
system.membus.reqLayer4.occupancy           151502500                       # Layer occupancy (ticks)
system.membus.reqLayer4.utilization               1.1                       # Layer utilization (%)
system.membus.respLayer1.occupancy          200550250                       # Layer occupancy (ticks)
system.membus.respLayer1.utilization              1.4                       # Layer utilization (%)
system.membus.power_state.pwrStateResidencyTicks::UNDEFINED  14332545500                       # Cumulative time (in ticks) in various power states
system.voltage_domain.voltage                       1                       # Voltage in Volts
system.clk_domain.clock                          1000                       # Clock period in ticks
system.cpu0.icache.demand_hits::.cpu0.inst      3232929                       # number of demand (read+write) hits
system.cpu0.icache.demand_hits::total         3232929                       # number of demand (read+write) hits
system.cpu0.icache.overall_hits::.cpu0.inst      3232929                       # number of overall hits
system.cpu0.icache.overall_hits::total        3232929                       # number of overall hits
system.cpu0.icache.demand_misses::.cpu0.inst        66718                       # number of demand (read+write) misses
system.cpu0.icache.demand_misses::total         66718                       # number of demand (read+write) misses
system.cpu0.icache.overall_misses::.cpu0.inst        66718                       # number of overall misses
system.cpu0.icache.overall_misses::total        66718                       # number of overall misses
system.cpu0.icache.demand_miss_latency::.cpu0.inst   1158425500                       # number of demand (read+write) miss cycles
system.cpu0.icache.demand_miss_latency::total   1158425500                       # number of demand (read+write) miss cycles
system.cpu0.icache.overall_miss_latency::.cpu0.inst   1158425500                       # number of overall miss cycles
system.cpu0.icache.overall_miss_latency::total   1158425500                       # number of overall miss cycles
system.cpu0.icache.demand_accesses::.cpu0.inst      3299647                       # number of demand (read+write) accesses
system.cpu0.icache.demand_accesses::total      3299647                       # number of demand (read+write) accesses
system.cpu0.icache.overall_accesses::.cpu0.inst      3299647                       # number of overall (read+write) accesses
system.cpu0.icache.overall_accesses::total      3299647                       # number of overall (read+write) accesses
system.cpu0.icache.demand_miss_rate::.cpu0.inst     0.020220                       # miss rate for demand accesses
system.cpu0.icache.demand_miss_rate::total     0.020220                       # miss rate for demand accesses
system.cpu0.icache.overall_miss_rate::.cpu0.inst     0.020220                       # miss rate for overall accesses
system.cpu0.icache.overall_miss_rate::total     0.020220                       # miss rate for overall accesses
system.cpu0.icache.demand_avg_miss_latency::.cpu0.inst 17363.012980                       # average overall miss latency
system.cpu0.icache.demand_avg_miss_latency::total 17363.012980                       # average overall miss latency
system.cpu0.icache.overall_avg_miss_latency::.cpu0.inst 17363.012980                       # average overall miss latency
system.cpu0.icache.overall_avg_miss_latency::total 17363.012980                       # average overall miss latency
system.cpu0.icache.blocked_cycles::no_mshrs            0                       # number of cycles access was blocked
system.cpu0.icache.blocked_cycles::no_targets            0                       # number of cycles access was blocked
system.cpu0.icache.blocked::no_mshrs                0                       # number of cycles access was blocked
system.cpu0.icache.blocked::no_targets              0                       # number of cycles access was blocked
system.cpu0.icache.avg_blocked_cycles::no_mshrs          nan                       # average number of cycles each access was blocked
system.cpu0.icache.avg_blocked_cycles::no_targets          nan                       # average number of cycles each access was blocked
system.cpu0.icache.writebacks::.writebacks        66702                       # number of writebacks
system.cpu0.icache.writebacks::total            66702                       # number of writebacks
system.cpu0.icache.demand_mshr_misses::.cpu0.inst        66718                       # number of demand (read+write) MSHR misses
system.cpu0.icache.demand_mshr_misses::total        66718                       # number of demand (read+write) MSHR misses
system.cpu0.icache.overall_mshr_misses::.cpu0.inst        66718                       # number of overall MSHR misses
system.cpu0.icache.overall_mshr_misses::total        66718                       # number of overall MSHR misses
system.cpu0.icache.demand_mshr_miss_latency::.cpu0.inst   1091707500                       # number of demand (read+write) MSHR miss cycles
system.cpu0.icache.demand_mshr_miss_latency::total   1091707500                       # number of demand (read+write) MSHR miss cycles
system.cpu0.icache.overall_mshr_miss_latency::.cpu0.inst   1091707500                       # number of overall MSHR miss cycles
system.cpu0.icache.overall_mshr_miss_latency::total   1091707500                       # number of overall MSHR miss cycles
system.cpu0.icache.demand_mshr_miss_rate::.cpu0.inst     0.020220                       # mshr miss rate for demand accesses
system.cpu0.icache.demand_mshr_miss_rate::total     0.020220                       # mshr miss rate for demand accesses
system.cpu0.icache.overall_mshr_miss_rate::.cpu0.inst     0.020220                       # mshr miss rate for overall accesses
system.cpu0.icache.overall_mshr_miss_rate::total     0.020220                       # mshr miss rate for overall accesses
system.cpu0.icache.demand_avg_mshr_miss_latency::.cpu0.inst 16363.012980                       # average overall mshr miss latency
system.cpu0.icache.demand_avg_mshr_miss_latency::total 16363.012980                       # average overall mshr miss latency
system.cpu0.icache.overall_avg_mshr_miss_latency::.cpu0.inst 16363.012980                       # average overall mshr miss latency
system.cpu0.icache.overall_avg_mshr_miss_latency::total 16363.012980                       # average overall mshr miss latency
system.cpu0.icache.replacements                 66702                       # number of replacements
system.cpu0.icache.ReadReq_hits::.cpu0.inst      3232929                       # number of ReadReq hits
system.cpu0.icache.ReadReq_hits::total        3232929                       # number of ReadReq hits
system.cpu0.icache.ReadReq_misses::.cpu0.inst        66718                       # number of ReadReq misses
system.cpu0.icache.ReadReq_misses::total        66718                       # number of ReadReq misses
system.cpu0.icache.ReadReq_miss_latency::.cpu0.inst   1158425500                       # number of ReadReq miss cycles
system.cpu0.icache.ReadReq_miss_latency::total   1158425500                       # number of ReadReq miss cycles
system.cpu0.icache.ReadReq_accesses::.cpu0.inst      3299647                       # number of ReadReq accesses(hits+misses)
system.cpu0.icache.ReadReq_accesses::total      3299647                       # number of ReadReq accesses(hits+misses)
system.cpu0.icache.ReadReq_miss_rate::.cpu0.inst     0.020220                       # miss rate for ReadReq accesses
system.cpu0.icache.ReadReq_miss_rate::total     0.020220                       # miss rate for ReadReq accesses
system.cpu0.icache.ReadReq_avg_miss_latency::.cpu0.inst 17363.012980                       # average ReadReq miss latency
system.cpu0.icache.ReadReq_avg_miss_latency::total 17363.012980                       # average ReadReq miss latency
system.cpu0.icache.ReadReq_mshr_misses::.cpu0.inst        66718                       # number of ReadReq MSHR misses
system.cpu0.icache.ReadReq_mshr_misses::total        66718                       # number of ReadReq MSHR misses
system.cpu0.icache.ReadReq_mshr_miss_latency::.cpu0.inst   1091707500                       # number of ReadReq MSHR miss cycles
system.cpu0.icache.ReadReq_mshr_miss_latency::total   1091707500                       # number of ReadReq MSHR miss cycles
system.cpu0.icache.ReadReq_mshr_miss_rate::.cpu0.inst     0.020220                       # mshr miss rate for ReadReq accesses
system.cpu0.icache.ReadReq_mshr_miss_rate::total     0.020220                       # mshr miss rate for ReadReq accesses
system.cpu0.icache.ReadReq_avg_mshr_miss_latency::.cpu0.inst 16363.012980                       # average ReadReq mshr miss latency
system.cpu0.icache.ReadReq_avg_mshr_miss_latency::total 16363.012980                       # average ReadReq mshr miss latency
system.cpu0.icache.power_state.pwrStateResidencyTicks::UNDEFINED  14332545500                       # Cumulative time (in ticks) in various power states
system.cpu0.icache.tags.tagsinuse           15.999040                       # Cycle average of tags in use
system.cpu0.icache.tags.total_refs            3299647                       # Total number of references to valid blocks.
system.cpu0.icache.tags.sampled_refs            66718                       # Sample count of references to valid blocks.
system.cpu0.icache.tags.avg_refs            49.456623                       # Average number of references to valid blocks.
system.cpu0.icache.tags.warmup_cycle            87500                       # Cycle when the warmup percentage was hit.
system.cpu0.icache.tags.occ_blocks::.cpu0.inst    15.999040                       # Average occupied blocks per requestor
system.cpu0.icache.tags.occ_percent::.cpu0.inst     0.999940                       # Average percentage of cache occupancy
system.cpu0.icache.tags.occ_percent::total     0.999940                       # Average percentage of cache occupancy
system.cpu0.icache.tags.occ_task_id_blocks::1024           16                       # Occupied blocks per task id
system.cpu0.icache.tags.age_task_id_blocks_1024::1           15                       # Occupied blocks per task id
system.cpu0.icache.tags.age_task_id_blocks_1024::2            1                       # Occupied blocks per task id
system.cpu0.icache.tags.occ_task_id_percent::1024            1                       # Percentage of cache occupancy per task id
system.cpu0.icache.tags.tag_accesses         26463894                       # Number of tag accesses
system.cpu0.icache.tags.data_accesses        26463894                       # Number of data accesses
system.cpu0.icache.tags.power_state.pwrStateResidencyTicks::UNDEFINED  14332545500                       # Cumulative time (in ticks) in various power states
system.cpu0.dtb.walker.power_state.pwrStateResidencyTicks::UNDEFINED  14332545500                       # Cumulative time (in ticks) in various power states
system.cpu0.interrupts.clk_domain.clock          8000                       # Clock period in ticks
system.cpu0.itb_walker_cache.blocked_cycles::no_mshrs            0                       # number of cycles access was blocked
system.cpu0.itb_walker_cache.blocked_cycles::no_targets            0                       # number of cycles access was blocked
system.cpu0.itb_walker_cache.blocked::no_mshrs            0                       # number of cycles access was blocked
system.cpu0.itb_walker_cache.blocked::no_targets            0                       # number of cycles access was blocked
system.cpu0.itb_walker_cache.avg_blocked_cycles::no_mshrs          nan                       # average number of cycles each access was blocked
system.cpu0.itb_walker_cache.avg_blocked_cycles::no_targets          nan                       # average number of cycles each access was blocked
system.cpu0.itb_walker_cache.replacements            0                       # number of replacements
system.cpu0.itb_walker_cache.power_state.pwrStateResidencyTicks::UNDEFINED  14332545500                       # Cumulative time (in ticks) in various power states
system.cpu0.itb_walker_cache.tags.tagsinuse            0                       # Cycle average of tags in use
system.cpu0.itb_walker_cache.tags.total_refs            0                       # Total number of references to valid blocks.
system.cpu0.itb_walker_cache.tags.sampled_refs            0                       # Sample count of references to valid blocks.
system.cpu0.itb_walker_cache.tags.avg_refs          nan                       # Average number of references to valid blocks.
system.cpu0.itb_walker_cache.tags.warmup_cycle            0                       # Cycle when the warmup percentage was hit.
system.cpu0.itb_walker_cache.tags.tag_accesses            0                       # Number of tag accesses
system.cpu0.itb_walker_cache.tags.data_accesses            0                       # Number of data accesses
system.cpu0.itb_walker_cache.tags.power_state.pwrStateResidencyTicks::UNDEFINED  14332545500                       # Cumulative time (in ticks) in various power states
system.cpu0.dtb_walker_cache.blocked_cycles::no_mshrs            0                       # number of cycles access was blocked
system.cpu0.dtb_walker_cache.blocked_cycles::no_targets            0                       # number of cycles access was blocked
system.cpu0.dtb_walker_cache.blocked::no_mshrs            0                       # number of cycles access was blocked
system.cpu0.dtb_walker_cache.blocked::no_targets            0                       # number of cycles access was blocked
system.cpu0.dtb_walker_cache.avg_blocked_cycles::no_mshrs          nan                       # average number of cycles each access was blocked
system.cpu0.dtb_walker_cache.avg_blocked_cycles::no_targets          nan                       # average number of cycles each access was blocked
system.cpu0.dtb_walker_cache.replacements            0                       # number of replacements
system.cpu0.dtb_walker_cache.power_state.pwrStateResidencyTicks::UNDEFINED  14332545500                       # Cumulative time (in ticks) in various power states
system.cpu0.dtb_walker_cache.tags.tagsinuse            0                       # Cycle average of tags in use
system.cpu0.dtb_walker_cache.tags.total_refs            0                       # Total number of references to valid blocks.
system.cpu0.dtb_walker_cache.tags.sampled_refs            0                       # Sample count of references to valid blocks.
system.cpu0.dtb_walker_cache.tags.avg_refs          nan                       # Average number of references to valid blocks.
system.cpu0.dtb_walker_cache.tags.warmup_cycle            0                       # Cycle when the warmup percentage was hit.
system.cpu0.dtb_walker_cache.tags.tag_accesses            0                       # Number of tag accesses
system.cpu0.dtb_walker_cache.tags.data_accesses            0                       # Number of data accesses
system.cpu0.dtb_walker_cache.tags.power_state.pwrStateResidencyTicks::UNDEFINED  14332545500                       # Cumulative time (in ticks) in various power states
system.cpu0.dcache.demand_hits::.cpu0.data      1322614                       # number of demand (read+write) hits
system.cpu0.dcache.demand_hits::total         1322614                       # number of demand (read+write) hits
system.cpu0.dcache.overall_hits::.cpu0.data      1322671                       # number of overall hits
system.cpu0.dcache.overall_hits::total        1322671                       # number of overall hits
system.cpu0.dcache.demand_misses::.cpu0.data       202845                       # number of demand (read+write) misses
system.cpu0.dcache.demand_misses::total        202845                       # number of demand (read+write) misses
system.cpu0.dcache.overall_misses::.cpu0.data       202902                       # number of overall misses
system.cpu0.dcache.overall_misses::total       202902                       # number of overall misses
system.cpu0.dcache.demand_miss_latency::.cpu0.data   3665069000                       # number of demand (read+write) miss cycles
system.cpu0.dcache.demand_miss_latency::total   3665069000                       # number of demand (read+write) miss cycles
system.cpu0.dcache.overall_miss_latency::.cpu0.data   3665069000                       # number of overall miss cycles
system.cpu0.dcache.overall_miss_latency::total   3665069000                       # number of overall miss cycles
system.cpu0.dcache.demand_accesses::.cpu0.data      1525459                       # number of demand (read+write) accesses
system.cpu0.dcache.demand_accesses::total      1525459                       # number of demand (read+write) accesses
system.cpu0.dcache.overall_accesses::.cpu0.data      1525573                       # number of overall (read+write) accesses
system.cpu0.dcache.overall_accesses::total      1525573                       # number of overall (read+write) accesses
system.cpu0.dcache.demand_miss_rate::.cpu0.data     0.132973                       # miss rate for demand accesses
system.cpu0.dcache.demand_miss_rate::total     0.132973                       # miss rate for demand accesses
system.cpu0.dcache.overall_miss_rate::.cpu0.data     0.133001                       # miss rate for overall accesses
system.cpu0.dcache.overall_miss_rate::total     0.133001                       # miss rate for overall accesses
system.cpu0.dcache.demand_avg_miss_latency::.cpu0.data 18068.323104                       # average overall miss latency
system.cpu0.dcache.demand_avg_miss_latency::total 18068.323104                       # average overall miss latency
system.cpu0.dcache.overall_avg_miss_latency::.cpu0.data 18063.247282                       # average overall miss latency
system.cpu0.dcache.overall_avg_miss_latency::total 18063.247282                       # average overall miss latency
system.cpu0.dcache.blocked_cycles::no_mshrs            0                       # number of cycles access was blocked
system.cpu0.dcache.blocked_cycles::no_targets            0                       # number of cycles access was blocked
system.cpu0.dcache.blocked::no_mshrs                0                       # number of cycles access was blocked
system.cpu0.dcache.blocked::no_targets              0                       # number of cycles access was blocked
system.cpu0.dcache.avg_blocked_cycles::no_mshrs          nan                       # average number of cycles each access was blocked
system.cpu0.dcache.avg_blocked_cycles::no_targets          nan                       # average number of cycles each access was blocked
system.cpu0.dcache.writebacks::.writebacks       179261                       # number of writebacks
system.cpu0.dcache.writebacks::total           179261                       # number of writebacks
system.cpu0.dcache.demand_mshr_hits::.cpu0.data         9778                       # number of demand (read+write) MSHR hits
system.cpu0.dcache.demand_mshr_hits::total         9778                       # number of demand (read+write) MSHR hits
system.cpu0.dcache.overall_mshr_hits::.cpu0.data         9778                       # number of overall MSHR hits
system.cpu0.dcache.overall_mshr_hits::total         9778                       # number of overall MSHR hits
system.cpu0.dcache.demand_mshr_misses::.cpu0.data       193067                       # number of demand (read+write) MSHR misses
system.cpu0.dcache.demand_mshr_misses::total       193067                       # number of demand (read+write) MSHR misses
system.cpu0.dcache.overall_mshr_misses::.cpu0.data       193124                       # number of overall MSHR misses
system.cpu0.dcache.overall_mshr_misses::total       193124                       # number of overall MSHR misses
system.cpu0.dcache.demand_mshr_miss_latency::.cpu0.data   3068120500                       # number of demand (read+write) MSHR miss cycles
system.cpu0.dcache.demand_mshr_miss_latency::total   3068120500                       # number of demand (read+write) MSHR miss cycles
system.cpu0.dcache.overall_mshr_miss_latency::.cpu0.data   3069320000                       # number of overall MSHR miss cycles
system.cpu0.dcache.overall_mshr_miss_latency::total   3069320000                       # number of overall MSHR miss cycles
system.cpu0.dcache.demand_mshr_miss_rate::.cpu0.data     0.126563                       # mshr miss rate for demand accesses
system.cpu0.dcache.demand_mshr_miss_rate::total     0.126563                       # mshr miss rate for demand accesses
system.cpu0.dcache.overall_mshr_miss_rate::.cpu0.data     0.126591                       # mshr miss rate for overall accesses
system.cpu0.dcache.overall_mshr_miss_rate::total     0.126591                       # mshr miss rate for overall accesses
system.cpu0.dcache.demand_avg_mshr_miss_latency::.cpu0.data 15891.480678                       # average overall mshr miss latency
system.cpu0.dcache.demand_avg_mshr_miss_latency::total 15891.480678                       # average overall mshr miss latency
system.cpu0.dcache.overall_avg_mshr_miss_latency::.cpu0.data 15893.001388                       # average overall mshr miss latency
system.cpu0.dcache.overall_avg_mshr_miss_latency::total 15893.001388                       # average overall mshr miss latency
system.cpu0.dcache.replacements                193108                       # number of replacements
system.cpu0.dcache.ReadReq_hits::.cpu0.data       896082                       # number of ReadReq hits
system.cpu0.dcache.ReadReq_hits::total         896082                       # number of ReadReq hits
system.cpu0.dcache.ReadReq_misses::.cpu0.data       183288                       # number of ReadReq misses
system.cpu0.dcache.ReadReq_misses::total       183288                       # number of ReadReq misses
system.cpu0.dcache.ReadReq_miss_latency::.cpu0.data   2827098000                       # number of ReadReq miss cycles
system.cpu0.dcache.ReadReq_miss_latency::total   2827098000                       # number of ReadReq miss cycles
system.cpu0.dcache.ReadReq_accesses::.cpu0.data      1079370                       # number of ReadReq accesses(hits+misses)
system.cpu0.dcache.ReadReq_accesses::total      1079370                       # number of ReadReq accesses(hits+misses)
system.cpu0.dcache.ReadReq_miss_rate::.cpu0.data     0.169810                       # miss rate for ReadReq accesses
system.cpu0.dcache.ReadReq_miss_rate::total     0.169810                       # miss rate for ReadReq accesses
system.cpu0.dcache.ReadReq_avg_miss_latency::.cpu0.data 15424.348566                       # average ReadReq miss latency
system.cpu0.dcache.ReadReq_avg_miss_latency::total 15424.348566                       # average ReadReq miss latency
system.cpu0.dcache.ReadReq_mshr_hits::.cpu0.data         1462                       # number of ReadReq MSHR hits
system.cpu0.dcache.ReadReq_mshr_hits::total         1462                       # number of ReadReq MSHR hits
system.cpu0.dcache.ReadReq_mshr_misses::.cpu0.data       181826                       # number of ReadReq MSHR misses
system.cpu0.dcache.ReadReq_mshr_misses::total       181826                       # number of ReadReq MSHR misses
system.cpu0.dcache.ReadReq_mshr_miss_latency::.cpu0.data   2595658500                       # number of ReadReq MSHR miss cycles
system.cpu0.dcache.ReadReq_mshr_miss_latency::total   2595658500                       # number of ReadReq MSHR miss cycles
system.cpu0.dcache.ReadReq_mshr_miss_rate::.cpu0.data     0.168456                       # mshr miss rate for ReadReq accesses
system.cpu0.dcache.ReadReq_mshr_miss_rate::total     0.168456                       # mshr miss rate for ReadReq accesses
system.cpu0.dcache.ReadReq_avg_mshr_miss_latency::.cpu0.data 14275.507903                       # average ReadReq mshr miss latency
system.cpu0.dcache.ReadReq_avg_mshr_miss_latency::total 14275.507903                       # average ReadReq mshr miss latency
system.cpu0.dcache.WriteReq_hits::.cpu0.data       426532                       # number of WriteReq hits
system.cpu0.dcache.WriteReq_hits::total        426532                       # number of WriteReq hits
system.cpu0.dcache.WriteReq_misses::.cpu0.data        19557                       # number of WriteReq misses
system.cpu0.dcache.WriteReq_misses::total        19557                       # number of WriteReq misses
system.cpu0.dcache.WriteReq_miss_latency::.cpu0.data    837971000                       # number of WriteReq miss cycles
system.cpu0.dcache.WriteReq_miss_latency::total    837971000                       # number of WriteReq miss cycles
system.cpu0.dcache.WriteReq_accesses::.cpu0.data       446089                       # number of WriteReq accesses(hits+misses)
system.cpu0.dcache.WriteReq_accesses::total       446089                       # number of WriteReq accesses(hits+misses)
system.cpu0.dcache.WriteReq_miss_rate::.cpu0.data     0.043841                       # miss rate for WriteReq accesses
system.cpu0.dcache.WriteReq_miss_rate::total     0.043841                       # miss rate for WriteReq accesses
system.cpu0.dcache.WriteReq_avg_miss_latency::.cpu0.data 42847.624891                       # average WriteReq miss latency
system.cpu0.dcache.WriteReq_avg_miss_latency::total 42847.624891                       # average WriteReq miss latency
system.cpu0.dcache.WriteReq_mshr_hits::.cpu0.data         8316                       # number of WriteReq MSHR hits
system.cpu0.dcache.WriteReq_mshr_hits::total         8316                       # number of WriteReq MSHR hits
system.cpu0.dcache.WriteReq_mshr_misses::.cpu0.data        11241                       # number of WriteReq MSHR misses
system.cpu0.dcache.WriteReq_mshr_misses::total        11241                       # number of WriteReq MSHR misses
system.cpu0.dcache.WriteReq_mshr_miss_latency::.cpu0.data    472462000                       # number of WriteReq MSHR miss cycles
system.cpu0.dcache.WriteReq_mshr_miss_latency::total    472462000                       # number of WriteReq MSHR miss cycles
system.cpu0.dcache.WriteReq_mshr_miss_rate::.cpu0.data     0.025199                       # mshr miss rate for WriteReq accesses
system.cpu0.dcache.WriteReq_mshr_miss_rate::total     0.025199                       # mshr miss rate for WriteReq accesses
system.cpu0.dcache.WriteReq_avg_mshr_miss_latency::.cpu0.data 42030.246419                       # average WriteReq mshr miss latency
system.cpu0.dcache.WriteReq_avg_mshr_miss_latency::total 42030.246419                       # average WriteReq mshr miss latency
system.cpu0.dcache.SoftPFReq_hits::.cpu0.data           57                       # number of SoftPFReq hits
system.cpu0.dcache.SoftPFReq_hits::total           57                       # number of SoftPFReq hits
system.cpu0.dcache.SoftPFReq_misses::.cpu0.data           57                       # number of SoftPFReq misses
system.cpu0.dcache.SoftPFReq_misses::total           57                       # number of SoftPFReq misses
system.cpu0.dcache.SoftPFReq_accesses::.cpu0.data          114                       # number of SoftPFReq accesses(hits+misses)
system.cpu0.dcache.SoftPFReq_accesses::total          114                       # number of SoftPFReq accesses(hits+misses)
system.cpu0.dcache.SoftPFReq_miss_rate::.cpu0.data     0.500000                       # miss rate for SoftPFReq accesses
system.cpu0.dcache.SoftPFReq_miss_rate::total     0.500000                       # miss rate for SoftPFReq accesses
system.cpu0.dcache.SoftPFReq_mshr_misses::.cpu0.data           57                       # number of SoftPFReq MSHR misses
system.cpu0.dcache.SoftPFReq_mshr_misses::total           57                       # number of SoftPFReq MSHR misses
system.cpu0.dcache.SoftPFReq_mshr_miss_latency::.cpu0.data      1199500                       # number of SoftPFReq MSHR miss cycles
system.cpu0.dcache.SoftPFReq_mshr_miss_latency::total      1199500                       # number of SoftPFReq MSHR miss cycles
system.cpu0.dcache.SoftPFReq_mshr_miss_rate::.cpu0.data     0.500000                       # mshr miss rate for SoftPFReq accesses
system.cpu0.dcache.SoftPFReq_mshr_miss_rate::total     0.500000                       # mshr miss rate for SoftPFReq accesses
system.cpu0.dcache.SoftPFReq_avg_mshr_miss_latency::.cpu0.data 21043.859649                       # average SoftPFReq mshr miss latency
system.cpu0.dcache.SoftPFReq_avg_mshr_miss_latency::total 21043.859649                       # average SoftPFReq mshr miss latency
system.cpu0.dcache.power_state.pwrStateResidencyTicks::UNDEFINED  14332545500                       # Cumulative time (in ticks) in various power states
system.cpu0.dcache.tags.tagsinuse           15.999095                       # Cycle average of tags in use
system.cpu0.dcache.tags.total_refs            1515795                       # Total number of references to valid blocks.
system.cpu0.dcache.tags.sampled_refs           193124                       # Sample count of references to valid blocks.
system.cpu0.dcache.tags.avg_refs             7.848817                       # Average number of references to valid blocks.
system.cpu0.dcache.tags.warmup_cycle           178500                       # Cycle when the warmup percentage was hit.
system.cpu0.dcache.tags.occ_blocks::.cpu0.data    15.999095                       # Average occupied blocks per requestor
system.cpu0.dcache.tags.occ_percent::.cpu0.data     0.999943                       # Average percentage of cache occupancy
system.cpu0.dcache.tags.occ_percent::total     0.999943                       # Average percentage of cache occupancy
system.cpu0.dcache.tags.occ_task_id_blocks::1024           16                       # Occupied blocks per task id
system.cpu0.dcache.tags.age_task_id_blocks_1024::0           16                       # Occupied blocks per task id
system.cpu0.dcache.tags.occ_task_id_percent::1024            1                       # Percentage of cache occupancy per task id
system.cpu0.dcache.tags.tag_accesses         12397708                       # Number of tag accesses
system.cpu0.dcache.tags.data_accesses        12397708                       # Number of data accesses
system.cpu0.dcache.tags.power_state.pwrStateResidencyTicks::UNDEFINED  14332545500                       # Cumulative time (in ticks) in various power states
system.cpu0.power_state.pwrStateResidencyTicks::ON  14332545500                       # Cumulative time (in ticks) in various power states
system.cpu0.itb.walker.power_state.pwrStateResidencyTicks::UNDEFINED  14332545500                       # Cumulative time (in ticks) in various power states
system.cpu1.icache.demand_hits::.cpu1.inst      2429268                       # number of demand (read+write) hits
system.cpu1.icache.demand_hits::total         2429268                       # number of demand (read+write) hits
system.cpu1.icache.overall_hits::.cpu1.inst      2429268                       # number of overall hits
system.cpu1.icache.overall_hits::total        2429268                       # number of overall hits
system.cpu1.icache.demand_misses::.cpu1.inst        13742                       # number of demand (read+write) misses
system.cpu1.icache.demand_misses::total         13742                       # number of demand (read+write) misses
system.cpu1.icache.overall_misses::.cpu1.inst        13742                       # number of overall misses
system.cpu1.icache.overall_misses::total        13742                       # number of overall misses
system.cpu1.icache.demand_miss_latency::.cpu1.inst    467852000                       # number of demand (read+write) miss cycles
system.cpu1.icache.demand_miss_latency::total    467852000                       # number of demand (read+write) miss cycles
system.cpu1.icache.overall_miss_latency::.cpu1.inst    467852000                       # number of overall miss cycles
system.cpu1.icache.overall_miss_latency::total    467852000                       # number of overall miss cycles
system.cpu1.icache.demand_accesses::.cpu1.inst      2443010                       # number of demand (read+write) accesses
system.cpu1.icache.demand_accesses::total      2443010                       # number of demand (read+write) accesses
system.cpu1.icache.overall_accesses::.cpu1.inst      2443010                       # number of overall (read+write) accesses
system.cpu1.icache.overall_accesses::total      2443010                       # number of overall (read+write) accesses
system.cpu1.icache.demand_miss_rate::.cpu1.inst     0.005625                       # miss rate for demand accesses
system.cpu1.icache.demand_miss_rate::total     0.005625                       # miss rate for demand accesses
system.cpu1.icache.overall_miss_rate::.cpu1.inst     0.005625                       # miss rate for overall accesses
system.cpu1.icache.overall_miss_rate::total     0.005625                       # miss rate for overall accesses
system.cpu1.icache.demand_avg_miss_latency::.cpu1.inst 34045.408238                       # average overall miss latency
system.cpu1.icache.demand_avg_miss_latency::total 34045.408238                       # average overall miss latency
system.cpu1.icache.overall_avg_miss_latency::.cpu1.inst 34045.408238                       # average overall miss latency
system.cpu1.icache.overall_avg_miss_latency::total 34045.408238                       # average overall miss latency
system.cpu1.icache.blocked_cycles::no_mshrs            0                       # number of cycles access was blocked
system.cpu1.icache.blocked_cycles::no_targets            0                       # number of cycles access was blocked
system.cpu1.icache.blocked::no_mshrs                0                       # number of cycles access was blocked
system.cpu1.icache.blocked::no_targets              0                       # number of cycles access was blocked
system.cpu1.icache.avg_blocked_cycles::no_mshrs          nan                       # average number of cycles each access was blocked
system.cpu1.icache.avg_blocked_cycles::no_targets          nan                       # average number of cycles each access was blocked
system.cpu1.icache.writebacks::.writebacks        13726                       # number of writebacks
system.cpu1.icache.writebacks::total            13726                       # number of writebacks
system.cpu1.icache.demand_mshr_misses::.cpu1.inst        13742                       # number of demand (read+write) MSHR misses
system.cpu1.icache.demand_mshr_misses::total        13742                       # number of demand (read+write) MSHR misses
system.cpu1.icache.overall_mshr_misses::.cpu1.inst        13742                       # number of overall MSHR misses
system.cpu1.icache.overall_mshr_misses::total        13742                       # number of overall MSHR misses
system.cpu1.icache.demand_mshr_miss_latency::.cpu1.inst    454110000                       # number of demand (read+write) MSHR miss cycles
system.cpu1.icache.demand_mshr_miss_latency::total    454110000                       # number of demand (read+write) MSHR miss cycles
system.cpu1.icache.overall_mshr_miss_latency::.cpu1.inst    454110000                       # number of overall MSHR miss cycles
system.cpu1.icache.overall_mshr_miss_latency::total    454110000                       # number of overall MSHR miss cycles
system.cpu1.icache.demand_mshr_miss_rate::.cpu1.inst     0.005625                       # mshr miss rate for demand accesses
system.cpu1.icache.demand_mshr_miss_rate::total     0.005625                       # mshr miss rate for demand accesses
system.cpu1.icache.overall_mshr_miss_rate::.cpu1.inst     0.005625                       # mshr miss rate for overall accesses
system.cpu1.icache.overall_mshr_miss_rate::total     0.005625                       # mshr miss rate for overall accesses
system.cpu1.icache.demand_avg_mshr_miss_latency::.cpu1.inst 33045.408238                       # average overall mshr miss latency
system.cpu1.icache.demand_avg_mshr_miss_latency::total 33045.408238                       # average overall mshr miss latency
system.cpu1.icache.overall_avg_mshr_miss_latency::.cpu1.inst 33045.408238                       # average overall mshr miss latency
system.cpu1.icache.overall_avg_mshr_miss_latency::total 33045.408238                       # average overall mshr miss latency
system.cpu1.icache.replacements                 13726                       # number of replacements
system.cpu1.icache.ReadReq_hits::.cpu1.inst      2429268                       # number of ReadReq hits
system.cpu1.icache.ReadReq_hits::total        2429268                       # number of ReadReq hits
system.cpu1.icache.ReadReq_misses::.cpu1.inst        13742                       # number of ReadReq misses
system.cpu1.icache.ReadReq_misses::total        13742                       # number of ReadReq misses
system.cpu1.icache.ReadReq_miss_latency::.cpu1.inst    467852000                       # number of ReadReq miss cycles
system.cpu1.icache.ReadReq_miss_latency::total    467852000                       # number of ReadReq miss cycles
system.cpu1.icache.ReadReq_accesses::.cpu1.inst      2443010                       # number of ReadReq accesses(hits+misses)
system.cpu1.icache.ReadReq_accesses::total      2443010                       # number of ReadReq accesses(hits+misses)
system.cpu1.icache.ReadReq_miss_rate::.cpu1.inst     0.005625                       # miss rate for ReadReq accesses
system.cpu1.icache.ReadReq_miss_rate::total     0.005625                       # miss rate for ReadReq accesses
system.cpu1.icache.ReadReq_avg_miss_latency::.cpu1.inst 34045.408238                       # average ReadReq miss latency
system.cpu1.icache.ReadReq_avg_miss_latency::total 34045.408238                       # average ReadReq miss latency
system.cpu1.icache.ReadReq_mshr_misses::.cpu1.inst        13742                       # number of ReadReq MSHR misses
system.cpu1.icache.ReadReq_mshr_misses::total        13742                       # number of ReadReq MSHR misses
system.cpu1.icache.ReadReq_mshr_miss_latency::.cpu1.inst    454110000                       # number of ReadReq MSHR miss cycles
system.cpu1.icache.ReadReq_mshr_miss_latency::total    454110000                       # number of ReadReq MSHR miss cycles
system.cpu1.icache.ReadReq_mshr_miss_rate::.cpu1.inst     0.005625                       # mshr miss rate for ReadReq accesses
system.cpu1.icache.ReadReq_mshr_miss_rate::total     0.005625                       # mshr miss rate for ReadReq accesses
system.cpu1.icache.ReadReq_avg_mshr_miss_latency::.cpu1.inst 33045.408238                       # average ReadReq mshr miss latency
system.cpu1.icache.ReadReq_avg_mshr_miss_latency::total 33045.408238                       # average ReadReq mshr miss latency
system.cpu1.icache.power_state.pwrStateResidencyTicks::UNDEFINED  14332545500                       # Cumulative time (in ticks) in various power states
system.cpu1.icache.tags.tagsinuse           15.998995                       # Cycle average of tags in use
system.cpu1.icache.tags.total_refs            2443010                       # Total number of references to valid blocks.
system.cpu1.icache.tags.sampled_refs            13742                       # Sample count of references to valid blocks.
system.cpu1.icache.tags.avg_refs           177.776888                       # Average number of references to valid blocks.
system.cpu1.icache.tags.warmup_cycle            92500                       # Cycle when the warmup percentage was hit.
system.cpu1.icache.tags.occ_blocks::.cpu1.inst    15.998995                       # Average occupied blocks per requestor
system.cpu1.icache.tags.occ_percent::.cpu1.inst     0.999937                       # Average percentage of cache occupancy
system.cpu1.icache.tags.occ_percent::total     0.999937                       # Average percentage of cache occupancy
system.cpu1.icache.tags.occ_task_id_blocks::1024           16                       # Occupied blocks per task id
system.cpu1.icache.tags.age_task_id_blocks_1024::1           16                       # Occupied blocks per task id
system.cpu1.icache.tags.occ_task_id_percent::1024            1                       # Percentage of cache occupancy per task id
system.cpu1.icache.tags.tag_accesses         19557822                       # Number of tag accesses
system.cpu1.icache.tags.data_accesses        19557822                       # Number of data accesses
system.cpu1.icache.tags.power_state.pwrStateResidencyTicks::UNDEFINED  14332545500                       # Cumulative time (in ticks) in various power states
system.cpu1.dtb.walker.power_state.pwrStateResidencyTicks::UNDEFINED  14332545500                       # Cumulative time (in ticks) in various power states
system.cpu1.interrupts.clk_domain.clock          8000                       # Clock period in ticks
system.cpu1.itb_walker_cache.blocked_cycles::no_mshrs            0                       # number of cycles access was blocked
system.cpu1.itb_walker_cache.blocked_cycles::no_targets            0                       # number of cycles access was blocked
system.cpu1.itb_walker_cache.blocked::no_mshrs            0                       # number of cycles access was blocked
system.cpu1.itb_walker_cache.blocked::no_targets            0                       # number of cycles access was blocked
system.cpu1.itb_walker_cache.avg_blocked_cycles::no_mshrs          nan                       # average number of cycles each access was blocked
system.cpu1.itb_walker_cache.avg_blocked_cycles::no_targets          nan                       # average number of cycles each access was blocked
system.cpu1.itb_walker_cache.replacements            0                       # number of replacements
system.cpu1.itb_walker_cache.power_state.pwrStateResidencyTicks::UNDEFINED  14332545500                       # Cumulative time (in ticks) in various power states
system.cpu1.itb_walker_cache.tags.tagsinuse            0                       # Cycle average of tags in use
system.cpu1.itb_walker_cache.tags.total_refs            0                       # Total number of references to valid blocks.
system.cpu1.itb_walker_cache.tags.sampled_refs            0                       # Sample count of references to valid blocks.
system.cpu1.itb_walker_cache.tags.avg_refs          nan                       # Average number of references to valid blocks.
system.cpu1.itb_walker_cache.tags.warmup_cycle            0                       # Cycle when the warmup percentage was hit.
system.cpu1.itb_walker_cache.tags.tag_accesses            0                       # Number of tag accesses
system.cpu1.itb_walker_cache.tags.data_accesses            0                       # Number of data accesses
system.cpu1.itb_walker_cache.tags.power_state.pwrStateResidencyTicks::UNDEFINED  14332545500                       # Cumulative time (in ticks) in various power states
system.cpu1.dtb_walker_cache.blocked_cycles::no_mshrs            0                       # number of cycles access was blocked
system.cpu1.dtb_walker_cache.blocked_cycles::no_targets            0                       # number of cycles access was blocked
system.cpu1.dtb_walker_cache.blocked::no_mshrs            0                       # number of cycles access was blocked
system.cpu1.dtb_walker_cache.blocked::no_targets            0                       # number of cycles access was blocked
system.cpu1.dtb_walker_cache.avg_blocked_cycles::no_mshrs          nan                       # average number of cycles each access was blocked
system.cpu1.dtb_walker_cache.avg_blocked_cycles::no_targets          nan                       # average number of cycles each access was blocked
system.cpu1.dtb_walker_cache.replacements            0                       # number of replacements
system.cpu1.dtb_walker_cache.power_state.pwrStateResidencyTicks::UNDEFINED  14332545500                       # Cumulative time (in ticks) in various power states
system.cpu1.dtb_walker_cache.tags.tagsinuse            0                       # Cycle average of tags in use
system.cpu1.dtb_walker_cache.tags.total_refs            0                       # Total number of references to valid blocks.
system.cpu1.dtb_walker_cache.tags.sampled_refs            0                       # Sample count of references to valid blocks.
system.cpu1.dtb_walker_cache.tags.avg_refs          nan                       # Average number of references to valid blocks.
system.cpu1.dtb_walker_cache.tags.warmup_cycle            0                       # Cycle when the warmup percentage was hit.
system.cpu1.dtb_walker_cache.tags.tag_accesses            0                       # Number of tag accesses
system.cpu1.dtb_walker_cache.tags.data_accesses            0                       # Number of data accesses
system.cpu1.dtb_walker_cache.tags.power_state.pwrStateResidencyTicks::UNDEFINED  14332545500                       # Cumulative time (in ticks) in various power states
system.cpu1.dcache.demand_hits::.cpu1.data      5861531                       # number of demand (read+write) hits
system.cpu1.dcache.demand_hits::total         5861531                       # number of demand (read+write) hits
system.cpu1.dcache.overall_hits::.cpu1.data      5863176                       # number of overall hits
system.cpu1.dcache.overall_hits::total        5863176                       # number of overall hits
system.cpu1.dcache.demand_misses::.cpu1.data       226374                       # number of demand (read+write) misses
system.cpu1.dcache.demand_misses::total        226374                       # number of demand (read+write) misses
system.cpu1.dcache.overall_misses::.cpu1.data       232120                       # number of overall misses
system.cpu1.dcache.overall_misses::total       232120                       # number of overall misses
system.cpu1.dcache.demand_miss_latency::.cpu1.data   4387940496                       # number of demand (read+write) miss cycles
system.cpu1.dcache.demand_miss_latency::total   4387940496                       # number of demand (read+write) miss cycles
system.cpu1.dcache.overall_miss_latency::.cpu1.data   4387940496                       # number of overall miss cycles
system.cpu1.dcache.overall_miss_latency::total   4387940496                       # number of overall miss cycles
system.cpu1.dcache.demand_accesses::.cpu1.data      6087905                       # number of demand (read+write) accesses
system.cpu1.dcache.demand_accesses::total      6087905                       # number of demand (read+write) accesses
system.cpu1.dcache.overall_accesses::.cpu1.data      6095296                       # number of overall (read+write) accesses
system.cpu1.dcache.overall_accesses::total      6095296                       # number of overall (read+write) accesses
system.cpu1.dcache.demand_miss_rate::.cpu1.data     0.037184                       # miss rate for demand accesses
system.cpu1.dcache.demand_miss_rate::total     0.037184                       # miss rate for demand accesses
system.cpu1.dcache.overall_miss_rate::.cpu1.data     0.038082                       # miss rate for overall accesses
system.cpu1.dcache.overall_miss_rate::total     0.038082                       # miss rate for overall accesses
system.cpu1.dcache.demand_avg_miss_latency::.cpu1.data 19383.588645                       # average overall miss latency
system.cpu1.dcache.demand_avg_miss_latency::total 19383.588645                       # average overall miss latency
system.cpu1.dcache.overall_avg_miss_latency::.cpu1.data 18903.758814                       # average overall miss latency
system.cpu1.dcache.overall_avg_miss_latency::total 18903.758814                       # average overall miss latency
system.cpu1.dcache.blocked_cycles::no_mshrs         1999                       # number of cycles access was blocked
system.cpu1.dcache.blocked_cycles::no_targets            0                       # number of cycles access was blocked
system.cpu1.dcache.blocked::no_mshrs               22                       # number of cycles access was blocked
system.cpu1.dcache.blocked::no_targets              0                       # number of cycles access was blocked
system.cpu1.dcache.avg_blocked_cycles::no_mshrs    90.863636                       # average number of cycles each access was blocked
system.cpu1.dcache.avg_blocked_cycles::no_targets          nan                       # average number of cycles each access was blocked
system.cpu1.dcache.writebacks::.writebacks        59685                       # number of writebacks
system.cpu1.dcache.writebacks::total            59685                       # number of writebacks
system.cpu1.dcache.demand_mshr_hits::.cpu1.data         8739                       # number of demand (read+write) MSHR hits
system.cpu1.dcache.demand_mshr_hits::total         8739                       # number of demand (read+write) MSHR hits
system.cpu1.dcache.overall_mshr_hits::.cpu1.data         8739                       # number of overall MSHR hits
system.cpu1.dcache.overall_mshr_hits::total         8739                       # number of overall MSHR hits
system.cpu1.dcache.demand_mshr_misses::.cpu1.data       217635                       # number of demand (read+write) MSHR misses
system.cpu1.dcache.demand_mshr_misses::total       217635                       # number of demand (read+write) MSHR misses
system.cpu1.dcache.overall_mshr_misses::.cpu1.data       221378                       # number of overall MSHR misses
system.cpu1.dcache.overall_mshr_misses::total       221378                       # number of overall MSHR misses
system.cpu1.dcache.demand_mshr_miss_latency::.cpu1.data   3854598500                       # number of demand (read+write) MSHR miss cycles
system.cpu1.dcache.demand_mshr_miss_latency::total   3854598500                       # number of demand (read+write) MSHR miss cycles
system.cpu1.dcache.overall_mshr_miss_latency::.cpu1.data   4144859000                       # number of overall MSHR miss cycles
system.cpu1.dcache.overall_mshr_miss_latency::total   4144859000                       # number of overall MSHR miss cycles
system.cpu1.dcache.demand_mshr_miss_rate::.cpu1.data     0.035749                       # mshr miss rate for demand accesses
system.cpu1.dcache.demand_mshr_miss_rate::total     0.035749                       # mshr miss rate for demand accesses
system.cpu1.dcache.overall_mshr_miss_rate::.cpu1.data     0.036319                       # mshr miss rate for overall accesses
system.cpu1.dcache.overall_mshr_miss_rate::total     0.036319                       # mshr miss rate for overall accesses
system.cpu1.dcache.demand_avg_mshr_miss_latency::.cpu1.data 17711.298734                       # average overall mshr miss latency
system.cpu1.dcache.demand_avg_mshr_miss_latency::total 17711.298734                       # average overall mshr miss latency
system.cpu1.dcache.overall_avg_mshr_miss_latency::.cpu1.data 18722.994155                       # average overall mshr miss latency
system.cpu1.dcache.overall_avg_mshr_miss_latency::total 18722.994155                       # average overall mshr miss latency
system.cpu1.dcache.replacements                221362                       # number of replacements
system.cpu1.dcache.ReadReq_hits::.cpu1.data      3983212                       # number of ReadReq hits
system.cpu1.dcache.ReadReq_hits::total        3983212                       # number of ReadReq hits
system.cpu1.dcache.ReadReq_misses::.cpu1.data       163004                       # number of ReadReq misses
system.cpu1.dcache.ReadReq_misses::total       163004                       # number of ReadReq misses
system.cpu1.dcache.ReadReq_miss_latency::.cpu1.data   2566271500                       # number of ReadReq miss cycles
system.cpu1.dcache.ReadReq_miss_latency::total   2566271500                       # number of ReadReq miss cycles
system.cpu1.dcache.ReadReq_accesses::.cpu1.data      4146216                       # number of ReadReq accesses(hits+misses)
system.cpu1.dcache.ReadReq_accesses::total      4146216                       # number of ReadReq accesses(hits+misses)
system.cpu1.dcache.ReadReq_miss_rate::.cpu1.data     0.039314                       # miss rate for ReadReq accesses
system.cpu1.dcache.ReadReq_miss_rate::total     0.039314                       # miss rate for ReadReq accesses
system.cpu1.dcache.ReadReq_avg_miss_latency::.cpu1.data 15743.610586                       # average ReadReq miss latency
system.cpu1.dcache.ReadReq_avg_miss_latency::total 15743.610586                       # average ReadReq miss latency
system.cpu1.dcache.ReadReq_mshr_hits::.cpu1.data          371                       # number of ReadReq MSHR hits
[...]
system.mem_ctrls.bytesPerActivate::256-383         1227      9.80%     75.25% # Bytes accessed per row activation
system.mem_ctrls.bytesPerActivate::384-511          784      6.26%     81.51% # Bytes accessed per row activation
system.mem_ctrls.bytesPerActivate::512-639          747      5.97%     87.48% # Bytes accessed per row activation
system.mem_ctrls.bytesPerActivate::640-767          324      2.59%     90.06% # Bytes accessed per row activation
system.mem_ctrls.bytesPerActivate::768-895          265      2.12%     92.18% # Bytes accessed per row activation
system.mem_ctrls.bytesPerActivate::896-1023          200      1.60%     93.78% # Bytes accessed per row activation
system.mem_ctrls.bytesPerActivate::1024-1151          779      6.22%    100.00% # Bytes accessed per row activation
system.mem_ctrls.bytesPerActivate::total        12520                       # Bytes accessed per row activation
system.mem_ctrls.rdPerTurnAround::samples          998                       # Reads before turning the bus around for writes
system.mem_ctrls.rdPerTurnAround::mean      35.359719                       # Reads before turning the bus around for writes
system.mem_ctrls.rdPerTurnAround::gmean     27.205332                       # Reads before turning the bus around for writes
system.mem_ctrls.rdPerTurnAround::stdev     42.857697                       # Reads before turning the bus around for writes
system.mem_ctrls.rdPerTurnAround::0-31            713     71.44%     71.44% # Reads before turning the bus around for writes
system.mem_ctrls.rdPerTurnAround::32-63           192     19.24%     90.68% # Reads before turning the bus around for writes
system.mem_ctrls.rdPerTurnAround::64-95            43      4.31%     94.99% # Reads before turning the bus around for writes
system.mem_ctrls.rdPerTurnAround::96-127           18      1.80%     96.79% # Reads before turning the bus around for writes
system.mem_ctrls.rdPerTurnAround::128-159           10      1.00%     97.80% # Reads before turning the bus around for writes
system.mem_ctrls.rdPerTurnAround::160-191           10      1.00%     98.80% # Reads before turning the bus around for writes
system.mem_ctrls.rdPerTurnAround::192-223            2      0.20%     99.00% # Reads before turning the bus around for writes
system.mem_ctrls.rdPerTurnAround::224-255            4      0.40%     99.40% # Reads before turning the bus around for writes
system.mem_ctrls.rdPerTurnAround::256-287            2      0.20%     99.60% # Reads before turning the bus around for writes
system.mem_ctrls.rdPerTurnAround::288-319            1      0.10%     99.70% # Reads before turning the bus around for writes
system.mem_ctrls.rdPerTurnAround::320-351            1      0.10%     99.80% # Reads before turning the bus around for writes
system.mem_ctrls.rdPerTurnAround::480-511            1      0.10%     99.90% # Reads before turning the bus around for writes
system.mem_ctrls.rdPerTurnAround::672-703            1      0.10%    100.00% # Reads before turning the bus around for writes
system.mem_ctrls.rdPerTurnAround::total           998                       # Reads before turning the bus around for writes
system.mem_ctrls.wrPerTurnAround::samples          998                       # Writes before turning the bus around for reads
system.mem_ctrls.wrPerTurnAround::mean      16.910822                       # Writes before turning the bus around for reads
system.mem_ctrls.wrPerTurnAround::gmean     16.878518                       # Writes before turning the bus around for reads
system.mem_ctrls.wrPerTurnAround::stdev      1.056604                       # Writes before turning the bus around for reads
system.mem_ctrls.wrPerTurnAround::16              552     55.31%     55.31% # Writes before turning the bus around for reads
system.mem_ctrls.wrPerTurnAround::17               22      2.20%     57.52% # Writes before turning the bus around for reads
system.mem_ctrls.wrPerTurnAround::18              393     39.38%     96.89% # Writes before turning the bus around for reads
system.mem_ctrls.wrPerTurnAround::19               26      2.61%     99.50% # Writes before turning the bus around for reads
system.mem_ctrls.wrPerTurnAround::20                4      0.40%     99.90% # Writes before turning the bus around for reads
system.mem_ctrls.wrPerTurnAround::23                1      0.10%    100.00% # Writes before turning the bus around for reads
system.mem_ctrls.wrPerTurnAround::total           998                       # Writes before turning the bus around for reads
system.mem_ctrls.bytesReadDRAM                2259456                       # Total number of bytes read from DRAM
system.mem_ctrls.bytesReadWrQ                  157888                       # Total number of bytes read from write queue
system.mem_ctrls.bytesWritten                 1080128                       # Total number of bytes written to DRAM
system.mem_ctrls.bytesReadSys                 2417344                       # Total read bytes from the system interface side
system.mem_ctrls.bytesWrittenSys              1088320                       # Total written bytes from the system interface side
system.mem_ctrls.avgRdBW                       157.65                       # Average DRAM read bandwidth in MiByte/s
system.mem_ctrls.avgWrBW                        75.36                       # Average achieved write bandwidth in MiByte/s
system.mem_ctrls.avgRdBWSys                    168.66                       # Average system read bandwidth in MiByte/s
system.mem_ctrls.avgWrBWSys                     75.93                       # Average system write bandwidth in MiByte/s
system.mem_ctrls.peakBW                      12800.00                       # Theoretical peak bandwidth in MiByte/s
system.mem_ctrls.busUtil                         1.82                       # Data bus utilization in percentage
system.mem_ctrls.busUtilRead                     1.23                       # Data bus utilization in percentage for reads
system.mem_ctrls.busUtilWrite                    0.59                       # Data bus utilization in percentage for writes
system.mem_ctrls.totGap                   14330842000                       # Total gap between requests
system.mem_ctrls.avgGap                     261626.30                       # Average gap between requests
system.mem_ctrls.masterReadBytes::.cpu0.inst       214784                       # Per-master bytes read from memory
system.mem_ctrls.masterReadBytes::.cpu0.data       612032                       # Per-master bytes read from memory
system.mem_ctrls.masterReadBytes::.cpu1.inst       258560                       # Per-master bytes read from memory
system.mem_ctrls.masterReadBytes::.cpu1.data      1174080                       # Per-master bytes read from memory
system.mem_ctrls.masterWriteBytes::.writebacks      1080128                       # Per-master bytes write to memory
system.mem_ctrls.masterReadRate::.cpu0.inst 14985753.926265226677                       # Per-master bytes read from memory rate (Bytes/sec)
system.mem_ctrls.masterReadRate::.cpu0.data 42702254.111106783152                       # Per-master bytes read from memory rate (Bytes/sec)
system.mem_ctrls.masterReadRate::.cpu1.inst 18040061.341511178762                       # Per-master bytes read from memory rate (Bytes/sec)
system.mem_ctrls.masterReadRate::.cpu1.data 81917060.720302611589                       # Per-master bytes read from memory rate (Bytes/sec)
system.mem_ctrls.masterWriteRate::.writebacks 75361909.717991128564                       # Per-master bytes write to memory rate (Bytes/sec)
system.mem_ctrls.masterReadAccesses::.cpu0.inst         3356                       # Per-master read serviced memory accesses
system.mem_ctrls.masterReadAccesses::.cpu0.data        11429                       # Per-master read serviced memory accesses
system.mem_ctrls.masterReadAccesses::.cpu1.inst         4040                       # Per-master read serviced memory accesses
system.mem_ctrls.masterReadAccesses::.cpu1.data        18946                       # Per-master read serviced memory accesses
system.mem_ctrls.masterWriteAccesses::.writebacks        17005                       # Per-master write serviced memory accesses
system.mem_ctrls.masterReadTotalLat::.cpu0.inst    104570000                       # Per-master read total memory access latency
system.mem_ctrls.masterReadTotalLat::.cpu0.data    296986750                       # Per-master read total memory access latency
system.mem_ctrls.masterReadTotalLat::.cpu1.inst    120564000                       # Per-master read total memory access latency
system.mem_ctrls.masterReadTotalLat::.cpu1.data    573285000                       # Per-master read total memory access latency
system.mem_ctrls.masterWriteTotalLat::.writebacks 338304780750                       # Per-master write total memory access latency
system.mem_ctrls.masterReadAvgLat::.cpu0.inst     31159.12                       # Per-master read average memory access latency
system.mem_ctrls.masterReadAvgLat::.cpu0.data     25985.37                       # Per-master read average memory access latency
system.mem_ctrls.masterReadAvgLat::.cpu1.inst     29842.57                       # Per-master read average memory access latency
system.mem_ctrls.masterReadAvgLat::.cpu1.data     30258.89                       # Per-master read average memory access latency
system.mem_ctrls.masterWriteAvgLat::.writebacks  19894429.92                       # Per-master write average memory access latency
system.mem_ctrls.pageHitRate                    75.96                       # Row buffer hit rate, read and write combined
system.mem_ctrls.rank1.actEnergy             56156100                       # Energy for activate commands per rank (pJ)
system.mem_ctrls.rank1.preEnergy             29843880                       # Energy for precharge commands per rank (pJ)
system.mem_ctrls.rank1.readEnergy           148126440                       # Energy for read commands per rank (pJ)
system.mem_ctrls.rank1.writeEnergy           57988980                       # Energy for write commands per rank (pJ)
system.mem_ctrls.rank1.refreshEnergy     1130937600.000000                       # Energy for refresh commands per rank (pJ)
system.mem_ctrls.rank1.actBackEnergy       4269717240                       # Energy for active background per rank (pJ)
system.mem_ctrls.rank1.preBackEnergy       1908146400                       # Energy for precharge background per rank (pJ)
system.mem_ctrls.rank1.actPowerDownEnergy            0                       # Energy for active power-down per rank (pJ)
system.mem_ctrls.rank1.prePowerDownEnergy            0                       # Energy for precharge power-down per rank (pJ)
system.mem_ctrls.rank1.selfRefreshEnergy            0                       # Energy for self refresh per rank (pJ)
system.mem_ctrls.rank1.totalEnergy         7600916640                       # Total energy per rank (pJ)
system.mem_ctrls.rank1.averagePower        530.325659                       # Core power per rank (mW)
system.mem_ctrls.rank1.totalIdleTime                0                       # Total Idle time Per DRAM Rank
system.mem_ctrls.rank1.memoryStateTime::IDLE   4920981500                       # Time in different power states
system.mem_ctrls.rank1.memoryStateTime::REF    478400000                       # Time in different power states
system.mem_ctrls.rank1.memoryStateTime::SREF            0                       # Time in different power states
system.mem_ctrls.rank1.memoryStateTime::PRE_PDN            0                       # Time in different power states
system.mem_ctrls.rank1.memoryStateTime::ACT   8933164000                       # Time in different power states
system.mem_ctrls.rank1.memoryStateTime::ACT_PDN            0                       # Time in different power states
system.mem_ctrls.rank0.actEnergy             33243840                       # Energy for activate commands per rank (pJ)
system.mem_ctrls.rank0.preEnergy             17669520                       # Energy for precharge commands per rank (pJ)
system.mem_ctrls.rank0.readEnergy           103944120                       # Energy for read commands per rank (pJ)
system.mem_ctrls.rank0.writeEnergy           30108960                       # Energy for write commands per rank (pJ)
system.mem_ctrls.rank0.refreshEnergy     1130937600.000000                       # Energy for refresh commands per rank (pJ)
system.mem_ctrls.rank0.actBackEnergy       3622579710                       # Energy for active background per rank (pJ)
system.mem_ctrls.rank0.preBackEnergy       2453104320                       # Energy for precharge background per rank (pJ)
system.mem_ctrls.rank0.actPowerDownEnergy            0                       # Energy for active power-down per rank (pJ)
system.mem_ctrls.rank0.prePowerDownEnergy            0                       # Energy for precharge power-down per rank (pJ)
system.mem_ctrls.rank0.selfRefreshEnergy            0                       # Energy for self refresh per rank (pJ)
system.mem_ctrls.rank0.totalEnergy         7391588070                       # Total energy per rank (pJ)
system.mem_ctrls.rank0.averagePower        515.720538                       # Core power per rank (mW)
system.mem_ctrls.rank0.totalIdleTime                0                       # Total Idle time Per DRAM Rank
system.mem_ctrls.rank0.memoryStateTime::IDLE   6343497250                       # Time in different power states
system.mem_ctrls.rank0.memoryStateTime::REF    478400000                       # Time in different power states
system.mem_ctrls.rank0.memoryStateTime::SREF            0                       # Time in different power states
system.mem_ctrls.rank0.memoryStateTime::PRE_PDN            0                       # Time in different power states
system.mem_ctrls.rank0.memoryStateTime::ACT   7510648250                       # Time in different power states
system.mem_ctrls.rank0.memoryStateTime::ACT_PDN            0                       # Time in different power states
system.mem_ctrls.power_state.pwrStateResidencyTicks::UNDEFINED  14332545500                       # Cumulative time (in ticks) in various power states
system.cpu_clk_domain.clock                       500                       # Clock period in ticks
system.tol2bus.trans_dist::ReadResp            428719                       # Transaction distribution
system.tol2bus.trans_dist::WritebackDirty       255951                       # Transaction distribution
system.tol2bus.trans_dist::WritebackClean        80428                       # Transaction distribution
system.tol2bus.trans_dist::CleanEvict          197124                       # Transaction distribution
system.tol2bus.trans_dist::ReadExReq            66243                       # Transaction distribution
system.tol2bus.trans_dist::ReadExResp           66243                       # Transaction distribution
system.tol2bus.trans_dist::ReadCleanReq         80460                       # Transaction distribution
system.tol2bus.trans_dist::ReadSharedReq       348259                       # Transaction distribution
system.tol2bus.pkt_count_system.cpu0.icache.mem_side::system.l2.cpu_side       200138                       # Packet count per connected master and slave (bytes)
system.tol2bus.pkt_count_system.cpu0.dcache.mem_side::system.l2.cpu_side       579356                       # Packet count per connected master and slave (bytes)
system.tol2bus.pkt_count_system.cpu1.icache.mem_side::system.l2.cpu_side        41210                       # Packet count per connected master and slave (bytes)
system.tol2bus.pkt_count_system.cpu1.dcache.mem_side::system.l2.cpu_side       664118                       # Packet count per connected master and slave (bytes)
system.tol2bus.pkt_count::total               1484822                       # Packet count per connected master and slave (bytes)
system.tol2bus.pkt_size_system.cpu0.icache.mem_side::system.l2.cpu_side      8538880                       # Cumulative packet size per connected master and slave (bytes)
system.tol2bus.pkt_size_system.cpu0.dcache.mem_side::system.l2.cpu_side     23832640                       # Cumulative packet size per connected master and slave (bytes)
system.tol2bus.pkt_size_system.cpu1.icache.mem_side::system.l2.cpu_side      1757952                       # Cumulative packet size per connected master and slave (bytes)
system.tol2bus.pkt_size_system.cpu1.dcache.mem_side::system.l2.cpu_side     17988032                       # Cumulative packet size per connected master and slave (bytes)
system.tol2bus.pkt_size::total               52117504                       # Cumulative packet size per connected master and slave (bytes)
system.tol2bus.snoops                           38605                       # Total snoops (count)
system.tol2bus.snoopTraffic                   1088320                       # Total snoop traffic (bytes)
system.tol2bus.snoop_fanout::samples           533567                       # Request fanout histogram
system.tol2bus.snoop_fanout::mean            0.004011                       # Request fanout histogram
system.tol2bus.snoop_fanout::stdev           0.063203                       # Request fanout histogram
system.tol2bus.snoop_fanout::underflows             0      0.00%      0.00% # Request fanout histogram
system.tol2bus.snoop_fanout::0                 531427     99.60%     99.60% # Request fanout histogram
system.tol2bus.snoop_fanout::1                   2140      0.40%    100.00% # Request fanout histogram
system.tol2bus.snoop_fanout::2                      0      0.00%    100.00% # Request fanout histogram
system.tol2bus.snoop_fanout::3                      0      0.00%    100.00% # Request fanout histogram
system.tol2bus.snoop_fanout::4                      0      0.00%    100.00% # Request fanout histogram
system.tol2bus.snoop_fanout::5                      0      0.00%    100.00% # Request fanout histogram
system.tol2bus.snoop_fanout::6                      0      0.00%    100.00% # Request fanout histogram
system.tol2bus.snoop_fanout::7                      0      0.00%    100.00% # Request fanout histogram
system.tol2bus.snoop_fanout::8                      0      0.00%    100.00% # Request fanout histogram
system.tol2bus.snoop_fanout::overflows              0      0.00%    100.00% # Request fanout histogram
system.tol2bus.snoop_fanout::min_value              0                       # Request fanout histogram
system.tol2bus.snoop_fanout::max_value              1                       # Request fanout histogram
system.tol2bus.snoop_fanout::total             533567                       # Request fanout histogram
system.tol2bus.reqLayer0.occupancy          814304000                       # Layer occupancy (ticks)
system.tol2bus.reqLayer0.utilization              5.7                       # Layer utilization (%)
system.tol2bus.respLayer5.occupancy         332158317                       # Layer occupancy (ticks)
system.tol2bus.respLayer5.utilization             2.3                       # Layer utilization (%)
system.tol2bus.respLayer4.occupancy          20632960                       # Layer occupancy (ticks)
system.tol2bus.respLayer4.utilization             0.1                       # Layer utilization (%)
system.tol2bus.respLayer1.occupancy         289758353                       # Layer occupancy (ticks)
system.tol2bus.respLayer1.utilization             2.0                       # Layer utilization (%)
system.tol2bus.respLayer0.occupancy         100105942                       # Layer occupancy (ticks)
system.tol2bus.respLayer0.utilization             0.7                       # Layer utilization (%)
system.tol2bus.power_state.pwrStateResidencyTicks::UNDEFINED  14332545500                       # Cumulative time (in ticks) in various power states

---------- End Simulation Statistics   ----------
