
---------- Begin Simulation Statistics ----------
final_tick                                14010015500                       # Number of ticks from beginning of simulation (restored from checkpoints and never reset)
host_inst_rate                                 236574                       # Simulator instruction rate (inst/s)
host_mem_usage                                4482000                       # Number of bytes of host memory used
host_op_rate                                   414964                       # Simulator op (including micro ops) rate (op/s)
host_seconds                                    59.98                       # Real time elapsed on the host
host_tick_rate                              233591286                       # Simulator tick rate (ticks/s)
sim_freq                                 1000000000000                       # Frequency of simulated ticks
sim_insts                                    14188883                       # Number of instructions simulated
sim_ops                                      24888139                       # Number of ops (including micro ops) simulated
sim_seconds                                  0.014010                       # Number of seconds simulated
sim_ticks                                 14010015500                       # Number of ticks simulated
system.cpu0.branchPred.BTBCorrect                   0                       # Number of correct BTB predictions (this stat may not work properly.
system.cpu0.branchPred.BTBHitPct                  nan                       # BTB Hit Percentage
system.cpu0.branchPred.BTBHits                      0                       # Number of BTB hits
system.cpu0.branchPred.BTBLookups                   0                       # Number of BTB lookups
system.cpu0.branchPred.RASInCorrect                 0                       # Number of incorrect RAS predictions.
system.cpu0.branchPred.condIncorrect               43                       # Number of conditional branches incorrect
system.cpu0.branchPred.condPredicted               90                       # Number of conditional branches predicted
system.cpu0.branchPred.indirectHits                 0                       # Number of indirect target hits.
system.cpu0.branchPred.indirectLookups             24                       # Number of indirect predictor lookups.
system.cpu0.branchPred.indirectMisses              24                       # Number of indirect misses.
system.cpu0.branchPred.lookups                     90                       # Number of BP lookups
system.cpu0.branchPred.usedRAS                      0                       # Number of times the RAS was used to get a target.
system.cpu0.branchPredindirectMispredicted           15                       # Number of mispredicted indirect branches.
system.cpu0.committedInsts                   10000000                       # Number of instructions committed
system.cpu0.committedOps                     16927931                       # Number of ops (including micro ops) committed
system.cpu0.cpi                              2.802003                       # CPI: cycles per instruction
system.cpu0.discardedOps                      2872222                       # Number of ops (including micro ops) which were discarded before commit
system.cpu0.dtb.rdAccesses                    4157447                       # TLB accesses on read requests
system.cpu0.dtb.rdMisses                         2419                       # TLB misses on read requests
system.cpu0.dtb.wrAccesses                    2003171                       # TLB accesses on write requests
system.cpu0.dtb.wrMisses                         1720                       # TLB misses on write requests
system.cpu0.fetch2.amo_instructions                 0                       # Number of memory atomic instructions successfully decoded
system.cpu0.fetch2.fp_instructions                  0                       # Number of floating point instructions successfully decoded
system.cpu0.fetch2.int_instructions                 8                       # Number of integer instructions successfully decoded
system.cpu0.fetch2.load_instructions                0                       # Number of memory load instructions successfully decoded
system.cpu0.fetch2.store_instructions               0                       # Number of memory store instructions successfully decoded
system.cpu0.fetch2.vec_instructions                 0                       # Number of SIMD instructions successfully decoded
system.cpu0.idleCycles                        5092896                       # Total number of cycles that the object has spent stopped
system.cpu0.ipc                              0.356888                       # IPC: instructions per cycle
system.cpu0.itb.rdAccesses                          0                       # TLB accesses on read requests
system.cpu0.itb.rdMisses                            0                       # TLB misses on read requests
system.cpu0.itb.wrAccesses                    2443209                       # TLB accesses on write requests
system.cpu0.itb.wrMisses                          206                       # TLB misses on write requests
system.cpu0.numCycles                        28020031                       # number of cpu cycles simulated
system.cpu0.numFetchSuspends                        0                       # Number of times Execute suspended instruction fetching
system.cpu0.numWorkItemsCompleted                   0                       # number of work items this cpu completed
system.cpu0.numWorkItemsStarted                     0                       # number of work items this cpu started
system.cpu0.op_class_0::No_OpClass              31838      0.19%      0.19% # Class of committed instruction
system.cpu0.op_class_0::IntAlu               11081465     65.46%     65.65% # Class of committed instruction
system.cpu0.op_class_0::IntMult                    77      0.00%     65.65% # Class of committed instruction
system.cpu0.op_class_0::IntDiv                   1369      0.01%     65.66% # Class of committed instruction
system.cpu0.op_class_0::FloatAdd                  223      0.00%     65.66% # Class of committed instruction
system.cpu0.op_class_0::FloatCmp                    0      0.00%     65.66% # Class of committed instruction
system.cpu0.op_class_0::FloatCvt                  176      0.00%     65.66% # Class of committed instruction
system.cpu0.op_class_0::FloatMult                   0      0.00%     65.66% # Class of committed instruction
system.cpu0.op_class_0::FloatMultAcc                0      0.00%     65.66% # Class of committed instruction
system.cpu0.op_class_0::FloatDiv                    0      0.00%     65.66% # Class of committed instruction
system.cpu0.op_class_0::FloatMisc                   0      0.00%     65.66% # Class of committed instruction
system.cpu0.op_class_0::FloatSqrt                   0      0.00%     65.66% # Class of committed instruction
system.cpu0.op_class_0::SimdAdd                   952      0.01%     65.67% # Class of committed instruction
system.cpu0.op_class_0::SimdAddAcc                  0      0.00%     65.67% # Class of committed instruction
system.cpu0.op_class_0::SimdAlu                   988      0.01%     65.67% # Class of committed instruction
system.cpu0.op_class_0::SimdCmp                     0      0.00%     65.67% # Class of committed instruction
system.cpu0.op_class_0::SimdCvt                  1344      0.01%     65.68% # Class of committed instruction
system.cpu0.op_class_0::SimdMisc                  912      0.01%     65.69% # Class of committed instruction
system.cpu0.op_class_0::SimdMult                    0      0.00%     65.69% # Class of committed instruction
system.cpu0.op_class_0::SimdMultAcc                 0      0.00%     65.69% # Class of committed instruction
system.cpu0.op_class_0::SimdShift                 333      0.00%     65.69% # Class of committed instruction
system.cpu0.op_class_0::SimdShiftAcc                0      0.00%     65.69% # Class of committed instruction
system.cpu0.op_class_0::SimdDiv                     0      0.00%     65.69% # Class of committed instruction
system.cpu0.op_class_0::SimdSqrt                    0      0.00%     65.69% # Class of committed instruction
system.cpu0.op_class_0::SimdFloatAdd                0      0.00%     65.69% # Class of committed instruction
system.cpu0.op_class_0::SimdFloatAlu                0      0.00%     65.69% # Class of committed instruction
system.cpu0.op_class_0::SimdFloatCmp                0      0.00%     65.69% # Class of committed instruction
system.cpu0.op_class_0::SimdFloatCvt                0      0.00%     65.69% # Class of committed instruction
system.cpu0.op_class_0::SimdFloatDiv                0      0.00%     65.69% # Class of committed instruction
system.cpu0.op_class_0::SimdFloatMisc               0      0.00%     65.69% # Class of committed instruction
system.cpu0.op_class_0::SimdFloatMult               0      0.00%     65.69% # Class of committed instruction
system.cpu0.op_class_0::SimdFloatMultAcc            0      0.00%     65.69% # Class of committed instruction
system.cpu0.op_class_0::SimdFloatSqrt               0      0.00%     65.69% # Class of committed instruction
system.cpu0.op_class_0::SimdReduceAdd               0      0.00%     65.69% # Class of committed instruction
system.cpu0.op_class_0::SimdReduceAlu               0      0.00%     65.69% # Class of committed instruction
system.cpu0.op_class_0::SimdReduceCmp               0      0.00%     65.69% # Class of committed instruction
system.cpu0.op_class_0::SimdFloatReduceAdd            0      0.00%     65.69% # Class of committed instruction
system.cpu0.op_class_0::SimdFloatReduceCmp            0      0.00%     65.69% # Class of committed instruction
system.cpu0.op_class_0::SimdAes                     0      0.00%     65.69% # Class of committed instruction
system.cpu0.op_class_0::SimdAesMix                  0      0.00%     65.69% # Class of committed instruction
system.cpu0.op_class_0::SimdSha1Hash                0      0.00%     65.69% # Class of committed instruction
system.cpu0.op_class_0::SimdSha1Hash2               0      0.00%     65.69% # Class of committed instruction
system.cpu0.op_class_0::SimdSha256Hash              0      0.00%     65.69% # Class of committed instruction
system.cpu0.op_class_0::SimdSha256Hash2             0      0.00%     65.69% # Class of committed instruction
system.cpu0.op_class_0::SimdShaSigma2               0      0.00%     65.69% # Class of committed instruction
system.cpu0.op_class_0::SimdShaSigma3               0      0.00%     65.69% # Class of committed instruction
system.cpu0.op_class_0::SimdPredAlu                 0      0.00%     65.69% # Class of committed instruction
system.cpu0.op_class_0::MemRead               3833806     22.65%     88.34% # Class of committed instruction
system.cpu0.op_class_0::MemWrite              1911134     11.29%     99.63% # Class of committed instruction
system.cpu0.op_class_0::FloatMemRead            31918      0.19%     99.81% # Class of committed instruction
system.cpu0.op_class_0::FloatMemWrite           31396      0.19%    100.00% # Class of committed instruction
system.cpu0.op_class_0::IprAccess                   0      0.00%    100.00% # Class of committed instruction
system.cpu0.op_class_0::InstPrefetch                0      0.00%    100.00% # Class of committed instruction
system.cpu0.op_class_0::total                16927931                       # Class of committed instruction
system.cpu0.tickCycles                       22927135                       # Number of cycles that the object actually ticked
system.cpu0.workload.numSyscalls                   43                       # Number of system calls
system.cpu1.branchPred.BTBCorrect                   0                       # Number of correct BTB predictions (this stat may not work properly.
system.cpu1.branchPred.BTBHitPct                  nan                       # BTB Hit Percentage
system.cpu1.branchPred.BTBHits                      0                       # Number of BTB hits
system.cpu1.branchPred.BTBLookups                   0                       # Number of BTB lookups
system.cpu1.branchPred.RASInCorrect                 0                       # Number of incorrect RAS predictions.
system.cpu1.branchPred.condIncorrect               83                       # Number of conditional branches incorrect
system.cpu1.branchPred.condPredicted              278                       # Number of conditional branches predicted
system.cpu1.branchPred.indirectHits                 0                       # Number of indirect target hits.
system.cpu1.branchPred.indirectLookups             49                       # Number of indirect predictor lookups.
system.cpu1.branchPred.indirectMisses              49                       # Number of indirect misses.
system.cpu1.branchPred.lookups                    278                       # Number of BP lookups
system.cpu1.branchPred.usedRAS                      0                       # Number of times the RAS was used to get a target.
system.cpu1.branchPredindirectMispredicted           31                       # Number of mispredicted indirect branches.
system.cpu1.committedInsts                    4188883                       # Number of instructions committed
system.cpu1.committedOps                      7960208                       # Number of ops (including micro ops) committed
system.cpu1.cpi                              6.689102                       # CPI: cycles per instruction
system.cpu1.discardedOps                      2049714                       # Number of ops (including micro ops) which were discarded before commit
system.cpu1.dtb.rdAccesses                    1033594                       # TLB accesses on read requests
system.cpu1.dtb.rdMisses                        13835                       # TLB misses on read requests
system.cpu1.dtb.wrAccesses                     576495                       # TLB accesses on write requests
system.cpu1.dtb.wrMisses                          495                       # TLB misses on write requests
system.cpu1.fetch2.amo_instructions                 0                       # Number of memory atomic instructions successfully decoded
system.cpu1.fetch2.fp_instructions                  0                       # Number of floating point instructions successfully decoded
system.cpu1.fetch2.int_instructions                29                       # Number of integer instructions successfully decoded
system.cpu1.fetch2.load_instructions                0                       # Number of memory load instructions successfully decoded
system.cpu1.fetch2.store_instructions               0                       # Number of memory store instructions successfully decoded
system.cpu1.fetch2.vec_instructions                 0                       # Number of SIMD instructions successfully decoded
system.cpu1.idleCycles                       13341764                       # Total number of cycles that the object has spent stopped
system.cpu1.ipc                              0.149497                       # IPC: instructions per cycle
system.cpu1.itb.rdAccesses                          0                       # TLB accesses on read requests
system.cpu1.itb.rdMisses                            0                       # TLB misses on read requests
system.cpu1.itb.wrAccesses                    1939607                       # TLB accesses on write requests
system.cpu1.itb.wrMisses                          603                       # TLB misses on write requests
system.cpu1.numCycles                        28019865                       # number of cpu cycles simulated
system.cpu1.numFetchSuspends                        0                       # Number of times Execute suspended instruction fetching
system.cpu1.numWorkItemsCompleted                   0                       # number of work items this cpu completed
system.cpu1.numWorkItemsStarted                     0                       # number of work items this cpu started
system.cpu1.op_class_0::No_OpClass             152783      1.92%      1.92% # Class of committed instruction
system.cpu1.op_class_0::IntAlu                6239622     78.39%     80.30% # Class of committed instruction
system.cpu1.op_class_0::IntMult                   200      0.00%     80.31% # Class of committed instruction
system.cpu1.op_class_0::IntDiv                  55801      0.70%     81.01% # Class of committed instruction
system.cpu1.op_class_0::FloatAdd                 8019      0.10%     81.11% # Class of committed instruction
system.cpu1.op_class_0::FloatCmp                    0      0.00%     81.11% # Class of committed instruction
system.cpu1.op_class_0::FloatCvt                 2096      0.03%     81.14% # Class of committed instruction
system.cpu1.op_class_0::FloatMult                   0      0.00%     81.14% # Class of committed instruction
system.cpu1.op_class_0::FloatMultAcc                0      0.00%     81.14% # Class of committed instruction
system.cpu1.op_class_0::FloatDiv                    0      0.00%     81.14% # Class of committed instruction
system.cpu1.op_class_0::FloatMisc                   0      0.00%     81.14% # Class of committed instruction
system.cpu1.op_class_0::FloatSqrt                   0      0.00%     81.14% # Class of committed instruction
system.cpu1.op_class_0::SimdAdd                  8192      0.10%     81.24% # Class of committed instruction
system.cpu1.op_class_0::SimdAddAcc                  0      0.00%     81.24% # Class of committed instruction
system.cpu1.op_class_0::SimdAlu                 26443      0.33%     81.57% # Class of committed instruction
system.cpu1.op_class_0::SimdCmp                   294      0.00%     81.57% # Class of committed instruction
system.cpu1.op_class_0::SimdCvt                 21364      0.27%     81.84% # Class of committed instruction
system.cpu1.op_class_0::SimdMisc                19340      0.24%     82.09% # Class of committed instruction
system.cpu1.op_class_0::SimdMult                    0      0.00%     82.09% # Class of committed instruction
system.cpu1.op_class_0::SimdMultAcc                 0      0.00%     82.09% # Class of committed instruction
system.cpu1.op_class_0::SimdShift                2362      0.03%     82.11% # Class of committed instruction
system.cpu1.op_class_0::SimdShiftAcc                0      0.00%     82.11% # Class of committed instruction
system.cpu1.op_class_0::SimdDiv                     0      0.00%     82.11% # Class of committed instruction
system.cpu1.op_class_0::SimdSqrt                    0      0.00%     82.11% # Class of committed instruction
system.cpu1.op_class_0::SimdFloatAdd              124      0.00%     82.12% # Class of committed instruction
system.cpu1.op_class_0::SimdFloatAlu                0      0.00%     82.12% # Class of committed instruction
system.cpu1.op_class_0::SimdFloatCmp                0      0.00%     82.12% # Class of committed instruction
system.cpu1.op_class_0::SimdFloatCvt             2066      0.03%     82.14% # Class of committed instruction
system.cpu1.op_class_0::SimdFloatDiv                0      0.00%     82.14% # Class of committed instruction
system.cpu1.op_class_0::SimdFloatMisc               0      0.00%     82.14% # Class of committed instruction
system.cpu1.op_class_0::SimdFloatMult              82      0.00%     82.14% # Class of committed instruction
system.cpu1.op_class_0::SimdFloatMultAcc            0      0.00%     82.14% # Class of committed instruction
system.cpu1.op_class_0::SimdFloatSqrt               0      0.00%     82.14% # Class of committed instruction
system.cpu1.op_class_0::SimdReduceAdd               0      0.00%     82.14% # Class of committed instruction
system.cpu1.op_class_0::SimdReduceAlu               0      0.00%     82.14% # Class of committed instruction
system.cpu1.op_class_0::SimdReduceCmp               0      0.00%     82.14% # Class of committed instruction
system.cpu1.op_class_0::SimdFloatReduceAdd            0      0.00%     82.14% # Class of committed instruction
system.cpu1.op_class_0::SimdFloatReduceCmp            0      0.00%     82.14% # Class of committed instruction
system.cpu1.op_class_0::SimdAes                     0      0.00%     82.14% # Class of committed instruction
system.cpu1.op_class_0::SimdAesMix                  0      0.00%     82.14% # Class of committed instruction
system.cpu1.op_class_0::SimdSha1Hash                0      0.00%     82.14% # Class of committed instruction
system.cpu1.op_class_0::SimdSha1Hash2               0      0.00%     82.14% # Class of committed instruction
system.cpu1.op_class_0::SimdSha256Hash              0      0.00%     82.14% # Class of committed instruction
system.cpu1.op_class_0::SimdSha256Hash2             0      0.00%     82.14% # Class of committed instruction
system.cpu1.op_class_0::SimdShaSigma2               0      0.00%     82.14% # Class of committed instruction
system.cpu1.op_class_0::SimdShaSigma3               0      0.00%     82.14% # Class of committed instruction
system.cpu1.op_class_0::SimdPredAlu                 0      0.00%     82.14% # Class of committed instruction
system.cpu1.op_class_0::MemRead                826113     10.38%     92.52% # Class of committed instruction
system.cpu1.op_class_0::MemWrite               519708      6.53%     99.05% # Class of committed instruction
system.cpu1.op_class_0::FloatMemRead            44962      0.56%     99.62% # Class of committed instruction
system.cpu1.op_class_0::FloatMemWrite           30637      0.38%    100.00% # Class of committed instruction
system.cpu1.op_class_0::IprAccess                   0      0.00%    100.00% # Class of committed instruction
system.cpu1.op_class_0::InstPrefetch                0      0.00%    100.00% # Class of committed instruction
system.cpu1.op_class_0::total                 7960208                       # Class of committed instruction
system.cpu1.tickCycles                       14678101                       # Number of cycles that the object actually ticked
system.cpu1.workload.numSyscalls                   83                       # Number of system calls
system.membus.snoop_filter.hit_multi_requests            0                       # Number of requests hitting in the snoop filter with multiple (>1) holders of the requested data.
system.membus.snoop_filter.hit_multi_snoops            0                       # Number of snoops hitting in the snoop filter with multiple (>1) holders of the requested data.
system.membus.snoop_filter.hit_single_requests        66030                       # Number of requests hitting in the snoop filter with a single holder of the requested data.
system.membus.snoop_filter.hit_single_snoops            0                       # Number of snoops hitting in the snoop filter with a single holder of the requested data.
system.membus.snoop_filter.tot_requests        133085                       # Total number of requests made to the snoop filter.
system.membus.snoop_filter.tot_snoops               0                       # Total number of snoops made to the snoop filter.
system.tol2bus.snoop_filter.hit_multi_requests            1                       # Number of requests hitting in the snoop filter with multiple (>1) holders of the requested data.
system.tol2bus.snoop_filter.hit_multi_snoops            0                       # Number of snoops hitting in the snoop filter with multiple (>1) holders of the requested data.
system.tol2bus.snoop_filter.hit_single_requests       797470                       # Number of requests hitting in the snoop filter with a single holder of the requested data.
system.tol2bus.snoop_filter.hit_single_snoops          178                       # Number of snoops hitting in the snoop filter with a single holder of the requested data.
system.tol2bus.snoop_filter.tot_requests      1595005                       # Total number of requests made to the snoop filter.
system.tol2bus.snoop_filter.tot_snoops            178                       # Total number of snoops made to the snoop filter.
system.membus.trans_dist::ReadResp              44106                       # Transaction distribution
system.membus.trans_dist::WritebackDirty        25423                       # Transaction distribution
system.membus.trans_dist::CleanEvict            40607                       # Transaction distribution
system.membus.trans_dist::ReadExReq             22949                       # Transaction distribution
system.membus.trans_dist::ReadExResp            22949                       # Transaction distribution
system.membus.trans_dist::ReadSharedReq         44106                       # Transaction distribution
system.membus.pkt_count_system.l2.mem_side::system.mem_ctrls.port       200140                       # Packet count per connected master and slave (bytes)
system.membus.pkt_count_system.l2.mem_side::total       200140                       # Packet count per connected master and slave (bytes)
system.membus.pkt_count::total                 200140                       # Packet count per connected master and slave (bytes)
system.membus.pkt_size_system.l2.mem_side::system.mem_ctrls.port      5918592                       # Cumulative packet size per connected master and slave (bytes)
system.membus.pkt_size_system.l2.mem_side::total      5918592                       # Cumulative packet size per connected master and slave (bytes)
system.membus.pkt_size::total                 5918592                       # Cumulative packet size per connected master and slave (bytes)
system.membus.snoops                                0                       # Total snoops (count)
system.membus.snoopTraffic                          0                       # Total snoop traffic (bytes)
system.membus.snoop_fanout::samples             67055                       # Request fanout histogram
system.membus.snoop_fanout::mean                    0                       # Request fanout histogram
system.membus.snoop_fanout::stdev                   0                       # Request fanout histogram
system.membus.snoop_fanout::underflows              0      0.00%      0.00% # Request fanout histogram
system.membus.snoop_fanout::0                   67055    100.00%    100.00% # Request fanout histogram
system.membus.snoop_fanout::1                       0      0.00%    100.00% # Request fanout histogram
system.membus.snoop_fanout::overflows               0      0.00%    100.00% # Request fanout histogram
system.membus.snoop_fanout::min_value               0                       # Request fanout histogram
system.membus.snoop_fanout::max_value               0                       # Request fanout histogram
system.membus.snoop_fanout::total               67055                       # Request fanout histogram
system.membus.reqLayer4.occupancy           251650500                       # Layer occupancy (ticks)
system.membus.reqLayer4.utilization               1.8                       # Layer utilization (%)
system.membus.respLayer1.occupancy          359733500                       # Layer occupancy (ticks)
system.membus.respLayer1.utilization              2.6                       # Layer utilization (%)
system.membus.power_state.pwrStateResidencyTicks::UNDEFINED  14010015500                       # Cumulative time (in ticks) in various power states
system.voltage_domain.voltage                       1                       # Voltage in Volts
system.clk_domain.clock                          1000                       # Clock period in ticks
system.cpu0.icache.demand_hits::.cpu0.inst      2429337                       # number of demand (read+write) hits
system.cpu0.icache.demand_hits::total         2429337                       # number of demand (read+write) hits
system.cpu0.icache.overall_hits::.cpu0.inst      2429337                       # number of overall hits
system.cpu0.icache.overall_hits::total        2429337                       # number of overall hits
system.cpu0.icache.demand_misses::.cpu0.inst        13825                       # number of demand (read+write) misses
system.cpu0.icache.demand_misses::total         13825                       # number of demand (read+write) misses
system.cpu0.icache.overall_misses::.cpu0.inst        13825                       # number of overall misses
system.cpu0.icache.overall_misses::total        13825                       # number of overall misses
system.cpu0.icache.demand_miss_latency::.cpu0.inst    339877500                       # number of demand (read+write) miss cycles
system.cpu0.icache.demand_miss_latency::total    339877500                       # number of demand (read+write) miss cycles
system.cpu0.icache.overall_miss_latency::.cpu0.inst    339877500                       # number of overall miss cycles
system.cpu0.icache.overall_miss_latency::total    339877500                       # number of overall miss cycles
system.cpu0.icache.demand_accesses::.cpu0.inst      2443162                       # number of demand (read+write) accesses
system.cpu0.icache.demand_accesses::total      2443162                       # number of demand (read+write) accesses
system.cpu0.icache.overall_accesses::.cpu0.inst      2443162                       # number of overall (read+write) accesses
system.cpu0.icache.overall_accesses::total      2443162                       # number of overall (read+write) accesses
system.cpu0.icache.demand_miss_rate::.cpu0.inst     0.005659                       # miss rate for demand accesses
system.cpu0.icache.demand_miss_rate::total     0.005659                       # miss rate for demand accesses
system.cpu0.icache.overall_miss_rate::.cpu0.inst     0.005659                       # miss rate for overall accesses
system.cpu0.icache.overall_miss_rate::total     0.005659                       # miss rate for overall accesses
system.cpu0.icache.demand_avg_miss_latency::.cpu0.inst 24584.267631                       # average overall miss latency
system.cpu0.icache.demand_avg_miss_latency::total 24584.267631                       # average overall miss latency
system.cpu0.icache.overall_avg_miss_latency::.cpu0.inst 24584.267631                       # average overall miss latency
system.cpu0.icache.overall_avg_miss_latency::total 24584.267631                       # average overall miss latency
system.cpu0.icache.blocked_cycles::no_mshrs            0                       # number of cycles access was blocked
system.cpu0.icache.blocked_cycles::no_targets            0                       # number of cycles access was blocked
system.cpu0.icache.blocked::no_mshrs                0                       # number of cycles access was blocked
system.cpu0.icache.blocked::no_targets              0                       # number of cycles access was blocked
system.cpu0.icache.avg_blocked_cycles::no_mshrs          nan                       # average number of cycles each access was blocked
system.cpu0.icache.avg_blocked_cycles::no_targets          nan                       # average number of cycles each access was blocked
system.cpu0.icache.writebacks::.writebacks        13809                       # number of writebacks
system.cpu0.icache.writebacks::total            13809                       # number of writebacks
system.cpu0.icache.demand_mshr_misses::.cpu0.inst        13825                       # number of demand (read+write) MSHR misses
system.cpu0.icache.demand_mshr_misses::total        13825                       # number of demand (read+write) MSHR misses
system.cpu0.icache.overall_mshr_misses::.cpu0.inst        13825                       # number of overall MSHR misses
system.cpu0.icache.overall_mshr_misses::total        13825                       # number of overall MSHR misses
system.cpu0.icache.demand_mshr_miss_latency::.cpu0.inst    326052500                       # number of demand (read+write) MSHR miss cycles
system.cpu0.icache.demand_mshr_miss_latency::total    326052500                       # number of demand (read+write) MSHR miss cycles
system.cpu0.icache.overall_mshr_miss_latency::.cpu0.inst    326052500                       # number of overall MSHR miss cycles
system.cpu0.icache.overall_mshr_miss_latency::total    326052500                       # number of overall MSHR miss cycles
system.cpu0.icache.demand_mshr_miss_rate::.cpu0.inst     0.005659                       # mshr miss rate for demand accesses
system.cpu0.icache.demand_mshr_miss_rate::total     0.005659                       # mshr miss rate for demand accesses
system.cpu0.icache.overall_mshr_miss_rate::.cpu0.inst     0.005659                       # mshr miss rate for overall accesses
system.cpu0.icache.overall_mshr_miss_rate::total     0.005659                       # mshr miss rate for overall accesses
system.cpu0.icache.demand_avg_mshr_miss_latency::.cpu0.inst 23584.267631                       # average overall mshr miss latency
system.cpu0.icache.demand_avg_mshr_miss_latency::total 23584.267631                       # average overall mshr miss latency
system.cpu0.icache.overall_avg_mshr_miss_latency::.cpu0.inst 23584.267631                       # average overall mshr miss latency
system.cpu0.icache.overall_avg_mshr_miss_latency::total 23584.267631                       # average overall mshr miss latency
system.cpu0.icache.replacements                 13809                       # number of replacements
system.cpu0.icache.ReadReq_hits::.cpu0.inst      2429337                       # number of ReadReq hits
system.cpu0.icache.ReadReq_hits::total        2429337                       # number of ReadReq hits
system.cpu0.icache.ReadReq_misses::.cpu0.inst        13825                       # number of ReadReq misses
system.cpu0.icache.ReadReq_misses::total        13825                       # number of ReadReq misses
system.cpu0.icache.ReadReq_miss_latency::.cpu0.inst    339877500                       # number of ReadReq miss cycles
system.cpu0.icache.ReadReq_miss_latency::total    339877500                       # number of ReadReq miss cycles
system.cpu0.icache.ReadReq_accesses::.cpu0.inst      2443162                       # number of ReadReq accesses(hits+misses)
system.cpu0.icache.ReadReq_accesses::total      2443162                       # number of ReadReq accesses(hits+misses)
system.cpu0.icache.ReadReq_miss_rate::.cpu0.inst     0.005659                       # miss rate for ReadReq accesses
system.cpu0.icache.ReadReq_miss_rate::total     0.005659                       # miss rate for ReadReq accesses
system.cpu0.icache.ReadReq_avg_miss_latency::.cpu0.inst 24584.267631                       # average ReadReq miss latency
system.cpu0.icache.ReadReq_avg_miss_latency::total 24584.267631                       # average ReadReq miss latency
system.cpu0.icache.ReadReq_mshr_misses::.cpu0.inst        13825                       # number of ReadReq MSHR misses
system.cpu0.icache.ReadReq_mshr_misses::total        13825                       # number of ReadReq MSHR misses
system.cpu0.icache.ReadReq_mshr_miss_latency::.cpu0.inst    326052500                       # number of ReadReq MSHR miss cycles
system.cpu0.icache.ReadReq_mshr_miss_latency::total    326052500                       # number of ReadReq MSHR miss cycles
system.cpu0.icache.ReadReq_mshr_miss_rate::.cpu0.inst     0.005659                       # mshr miss rate for ReadReq accesses
system.cpu0.icache.ReadReq_mshr_miss_rate::total     0.005659                       # mshr miss rate for ReadReq accesses
system.cpu0.icache.ReadReq_avg_mshr_miss_latency::.cpu0.inst 23584.267631                       # average ReadReq mshr miss latency
system.cpu0.icache.ReadReq_avg_mshr_miss_latency::total 23584.267631                       # average ReadReq mshr miss latency
system.cpu0.icache.power_state.pwrStateResidencyTicks::UNDEFINED  14010015500                       # Cumulative time (in ticks) in various power states
system.cpu0.icache.tags.tagsinuse           15.999032                       # Cycle average of tags in use
system.cpu0.icache.tags.total_refs            2443162                       # Total number of references to valid blocks.
system.cpu0.icache.tags.sampled_refs            13825                       # Sample count of references to valid blocks.
system.cpu0.icache.tags.avg_refs           176.720579                       # Average number of references to valid blocks.
system.cpu0.icache.tags.warmup_cycle            87500                       # Cycle when the warmup percentage was hit.
system.cpu0.icache.tags.occ_blocks::.cpu0.inst    15.999032                       # Average occupied blocks per requestor
system.cpu0.icache.tags.occ_percent::.cpu0.inst     0.999940                       # Average percentage of cache occupancy
system.cpu0.icache.tags.occ_percent::total     0.999940                       # Average percentage of cache occupancy
system.cpu0.icache.tags.occ_task_id_blocks::1024           16                       # Occupied blocks per task id
system.cpu0.icache.tags.age_task_id_blocks_1024::1           16                       # Occupied blocks per task id
system.cpu0.icache.tags.occ_task_id_percent::1024            1                       # Percentage of cache occupancy per task id
system.cpu0.icache.tags.tag_accesses         19559121                       # Number of tag accesses
system.cpu0.icache.tags.data_accesses        19559121                       # Number of data accesses
system.cpu0.icache.tags.power_state.pwrStateResidencyTicks::UNDEFINED  14010015500                       # Cumulative time (in ticks) in various power states
system.cpu0.dtb.walker.power_state.pwrStateResidencyTicks::UNDEFINED  14010015500                       # Cumulative time (in ticks) in various power states
system.cpu0.interrupts.clk_domain.clock          8000                       # Clock period in ticks
system.cpu0.itb_walker_cache.blocked_cycles::no_mshrs            0                       # number of cycles access was blocked
system.cpu0.itb_walker_cache.blocked_cycles::no_targets            0                       # number of cycles access was blocked
system.cpu0.itb_walker_cache.blocked::no_mshrs            0                       # number of cycles access was blocked
system.cpu0.itb_walker_cache.blocked::no_targets            0                       # number of cycles access was blocked
system.cpu0.itb_walker_cache.avg_blocked_cycles::no_mshrs          nan                       # average number of cycles each access was blocked
system.cpu0.itb_walker_cache.avg_blocked_cycles::no_targets          nan                       # average number of cycles each access was blocked
system.cpu0.itb_walker_cache.replacements            0                       # number of replacements
system.cpu0.itb_walker_cache.power_state.pwrStateResidencyTicks::UNDEFINED  14010015500                       # Cumulative time (in ticks) in various power states
system.cpu0.itb_walker_cache.tags.tagsinuse            0                       # Cycle average of tags in use
system.cpu0.itb_walker_cache.tags.total_refs            0                       # Total number of references to valid blocks.
system.cpu0.itb_walker_cache.tags.sampled_refs            0                       # Sample count of references to valid blocks.
system.cpu0.itb_walker_cache.tags.avg_refs          nan                       # Average number of references to valid blocks.
system.cpu0.itb_walker_cache.tags.warmup_cycle            0                       # Cycle when the warmup percentage was hit.
system.cpu0.itb_walker_cache.tags.tag_accesses            0                       # Number of tag accesses
system.cpu0.itb_walker_cache.tags.data_accesses            0                       # Number of data accesses
system.cpu0.itb_walker_cache.tags.power_state.pwrStateResidencyTicks::UNDEFINED  14010015500                       # Cumulative time (in ticks) in various power states
system.cpu0.dtb_walker_cache.blocked_cycles::no_mshrs            0                       # number of cycles access was blocked
system.cpu0.dtb_walker_cache.blocked_cycles::no_targets            0                       # number of cycles access was blocked
system.cpu0.dtb_walker_cache.blocked::no_mshrs            0                       # number of cycles access was blocked
system.cpu0.dtb_walker_cache.blocked::no_targets            0                       # number of cycles access was blocked
system.cpu0.dtb_walker_cache.avg_blocked_cycles::no_mshrs          nan                       # average number of cycles each access was blocked
system.cpu0.dtb_walker_cache.avg_blocked_cycles::no_targets          nan                       # average number of cycles each access was blocked
system.cpu0.dtb_walker_cache.replacements            0                       # number of replacements
system.cpu0.dtb_walker_cache.power_state.pwrStateResidencyTicks::UNDEFINED  14010015500                       # Cumulative time (in ticks) in various power states
system.cpu0.dtb_walker_cache.tags.tagsinuse            0                       # Cycle average of tags in use
system.cpu0.dtb_walker_cache.tags.total_refs            0                       # Total number of references to valid blocks.
system.cpu0.dtb_walker_cache.tags.sampled_refs            0                       # Sample count of references to valid blocks.
system.cpu0.dtb_walker_cache.tags.avg_refs          nan                       # Average number of references to valid blocks.
system.cpu0.dtb_walker_cache.tags.warmup_cycle            0                       # Cycle when the warmup percentage was hit.
system.cpu0.dtb_walker_cache.tags.tag_accesses            0                       # Number of tag accesses
system.cpu0.dtb_walker_cache.tags.data_accesses            0                       # Number of data accesses
system.cpu0.dtb_walker_cache.tags.power_state.pwrStateResidencyTicks::UNDEFINED  14010015500                       # Cumulative time (in ticks) in various power states
system.cpu0.dcache.demand_hits::.cpu0.data      5861425                       # number of demand (read+write) hits
system.cpu0.dcache.demand_hits::total         5861425                       # number of demand (read+write) hits
system.cpu0.dcache.overall_hits::.cpu0.data      5861844                       # number of overall hits
system.cpu0.dcache.overall_hits::total        5861844                       # number of overall hits
system.cpu0.dcache.demand_misses::.cpu0.data       226512                       # number of demand (read+write) misses
system.cpu0.dcache.demand_misses::total        226512                       # number of demand (read+write) misses
system.cpu0.dcache.overall_misses::.cpu0.data       233484                       # number of overall misses
system.cpu0.dcache.overall_misses::total       233484                       # number of overall misses
system.cpu0.dcache.demand_miss_latency::.cpu0.data   4082068991                       # number of demand (read+write) miss cycles
system.cpu0.dcache.demand_miss_latency::total   4082068991                       # number of demand (read+write) miss cycles
system.cpu0.dcache.overall_miss_latency::.cpu0.data   4082068991                       # number of overall miss cycles
system.cpu0.dcache.overall_miss_latency::total   4082068991                       # number of overall miss cycles
system.cpu0.dcache.demand_accesses::.cpu0.data      6087937                       # number of demand (read+write) accesses
system.cpu0.dcache.demand_accesses::total      6087937                       # number of demand (read+write) accesses
system.cpu0.dcache.overall_accesses::.cpu0.data      6095328                       # number of overall (read+write) accesses
system.cpu0.dcache.overall_accesses::total      6095328                       # number of overall (read+write) accesses
system.cpu0.dcache.demand_miss_rate::.cpu0.data     0.037207                       # miss rate for demand accesses
system.cpu0.dcache.demand_miss_rate::total     0.037207                       # miss rate for demand accesses
system.cpu0.dcache.overall_miss_rate::.cpu0.data     0.038305                       # miss rate for overall accesses
system.cpu0.dcache.overall_miss_rate::total     0.038305                       # miss rate for overall accesses
system.cpu0.dcache.demand_avg_miss_latency::.cpu0.data 18021.424874                       # average overall miss latency
system.cpu0.dcache.demand_avg_miss_latency::total 18021.424874                       # average overall miss latency
system.cpu0.dcache.overall_avg_miss_latency::.cpu0.data 17483.292178                       # average overall miss latency
system.cpu0.dcache.overall_avg_miss_latency::total 17483.292178                       # average overall miss latency
system.cpu0.dcache.blocked_cycles::no_mshrs         3953                       # number of cycles access was blocked
system.cpu0.dcache.blocked_cycles::no_targets            0                       # number of cycles access was blocked
system.cpu0.dcache.blocked::no_mshrs               61                       # number of cycles access was blocked
system.cpu0.dcache.blocked::no_targets              0                       # number of cycles access was blocked
system.cpu0.dcache.avg_blocked_cycles::no_mshrs    64.803279                       # average number of cycles each access was blocked
system.cpu0.dcache.avg_blocked_cycles::no_targets          nan                       # average number of cycles each access was blocked
system.cpu0.dcache.writebacks::.writebacks        60751                       # number of writebacks
system.cpu0.dcache.writebacks::total            60751                       # number of writebacks
system.cpu0.dcache.demand_mshr_hits::.cpu0.data         8883                       # number of demand (read+write) MSHR hits
system.cpu0.dcache.demand_mshr_hits::total         8883                       # number of demand (read+write) MSHR hits
system.cpu0.dcache.overall_mshr_hits::.cpu0.data         8883                       # number of overall MSHR hits
system.cpu0.dcache.overall_mshr_hits::total         8883                       # number of overall MSHR hits
system.cpu0.dcache.demand_mshr_misses::.cpu0.data       217629                       # number of demand (read+write) MSHR misses
system.cpu0.dcache.demand_mshr_misses::total       217629                       # number of demand (read+write) MSHR misses
system.cpu0.dcache.overall_mshr_misses::.cpu0.data       221372                       # number of overall MSHR misses
system.cpu0.dcache.overall_mshr_misses::total       221372                       # number of overall MSHR misses
system.cpu0.dcache.demand_mshr_miss_latency::.cpu0.data   3623701500                       # number of demand (read+write) MSHR miss cycles
system.cpu0.dcache.demand_mshr_miss_latency::total   3623701500                       # number of demand (read+write) MSHR miss cycles
system.cpu0.dcache.overall_mshr_miss_latency::.cpu0.data   3923242000                       # number of overall MSHR miss cycles
system.cpu0.dcache.overall_mshr_miss_latency::total   3923242000                       # number of overall MSHR miss cycles
system.cpu0.dcache.demand_mshr_miss_rate::.cpu0.data     0.035748                       # mshr miss rate for demand accesses
system.cpu0.dcache.demand_mshr_miss_rate::total     0.035748                       # mshr miss rate for demand accesses
system.cpu0.dcache.overall_mshr_miss_rate::.cpu0.data     0.036318                       # mshr miss rate for overall accesses
system.cpu0.dcache.overall_mshr_miss_rate::total     0.036318                       # mshr miss rate for overall accesses
system.cpu0.dcache.demand_avg_mshr_miss_latency::.cpu0.data 16650.820892                       # average overall mshr miss latency
system.cpu0.dcache.demand_avg_mshr_miss_latency::total 16650.820892                       # average overall mshr miss latency
system.cpu0.dcache.overall_avg_mshr_miss_latency::.cpu0.data 17722.394883                       # average overall mshr miss latency
system.cpu0.dcache.overall_avg_mshr_miss_latency::total 17722.394883                       # average overall mshr miss latency
system.cpu0.dcache.replacements                221356                       # number of replacements
system.cpu0.dcache.ReadReq_hits::.cpu0.data      3983170                       # number of ReadReq hits
system.cpu0.dcache.ReadReq_hits::total        3983170                       # number of ReadReq hits
system.cpu0.dcache.ReadReq_misses::.cpu0.data       163078                       # number of ReadReq misses
system.cpu0.dcache.ReadReq_misses::total       163078                       # number of ReadReq misses
system.cpu0.dcache.ReadReq_miss_latency::.cpu0.data   2427597500                       # number of ReadReq miss cycles
system.cpu0.dcache.ReadReq_miss_latency::total   2427597500                       # number of ReadReq miss cycles
system.cpu0.dcache.ReadReq_accesses::.cpu0.data      4146248                       # number of ReadReq accesses(hits+misses)
system.cpu0.dcache.ReadReq_accesses::total      4146248                       # number of ReadReq accesses(hits+misses)
system.cpu0.dcache.ReadReq_miss_rate::.cpu0.data     0.039331                       # miss rate for ReadReq accesses
system.cpu0.dcache.ReadReq_miss_rate::total     0.039331                       # miss rate for ReadReq accesses
system.cpu0.dcache.ReadReq_avg_miss_latency::.cpu0.data 14886.112780                       # average ReadReq miss latency
system.cpu0.dcache.ReadReq_avg_miss_latency::total 14886.112780                       # average ReadReq miss latency
system.cpu0.dcache.ReadReq_mshr_hits::.cpu0.data          453                       # number of ReadReq MSHR hits
system.cpu0.dcache.ReadReq_mshr_hits::total          453                       # number of ReadReq MSHR hits
system.cpu0.dcache.ReadReq_mshr_misses::.cpu0.data       162625                       # number of ReadReq MSHR misses
system.cpu0.dcache.ReadReq_mshr_misses::total       162625                       # number of ReadReq MSHR misses
system.cpu0.dcache.ReadReq_mshr_miss_latency::.cpu0.data   2242558000                       # number of ReadReq MSHR miss cycles
system.cpu0.dcache.ReadReq_mshr_miss_latency::total   2242558000                       # number of ReadReq MSHR miss cycles
system.cpu0.dcache.ReadReq_mshr_miss_rate::.cpu0.data     0.039222                       # mshr miss rate for ReadReq accesses
system.cpu0.dcache.ReadReq_mshr_miss_rate::total     0.039222                       # mshr miss rate for ReadReq accesses
system.cpu0.dcache.ReadReq_avg_mshr_miss_latency::.cpu0.data 13789.749424                       # average ReadReq mshr miss latency
system.cpu0.dcache.ReadReq_avg_mshr_miss_latency::total 13789.749424                       # average ReadReq mshr miss latency
system.cpu0.dcache.WriteReq_hits::.cpu0.data      1878255                       # number of WriteReq hits
system.cpu0.dcache.WriteReq_hits::total       1878255                       # number of WriteReq hits
system.cpu0.dcache.WriteReq_misses::.cpu0.data        63434                       # number of WriteReq misses
system.cpu0.dcache.WriteReq_misses::total        63434                       # number of WriteReq misses
system.cpu0.dcache.WriteReq_miss_latency::.cpu0.data   1654471491                       # number of WriteReq miss cycles
system.cpu0.dcache.WriteReq_miss_latency::total   1654471491                       # number of WriteReq miss cycles
system.cpu0.dcache.WriteReq_accesses::.cpu0.data      1941689                       # number of WriteReq accesses(hits+misses)
system.cpu0.dcache.WriteReq_accesses::total      1941689                       # number of WriteReq accesses(hits+misses)
system.cpu0.dcache.WriteReq_miss_rate::.cpu0.data     0.032669                       # miss rate for WriteReq accesses
system.cpu0.dcache.WriteReq_miss_rate::total     0.032669                       # miss rate for WriteReq accesses
system.cpu0.dcache.WriteReq_avg_miss_latency::.cpu0.data 26081.777769                       # average WriteReq miss latency
system.cpu0.dcache.WriteReq_avg_miss_latency::total 26081.777769                       # average WriteReq miss latency
system.cpu0.dcache.WriteReq_mshr_hits::.cpu0.data         8430                       # number of WriteReq MSHR hits
system.cpu0.dcache.WriteReq_mshr_hits::total         8430                       # number of WriteReq MSHR hits
system.cpu0.dcache.WriteReq_mshr_misses::.cpu0.data        55004                       # number of WriteReq MSHR misses
system.cpu0.dcache.WriteReq_mshr_misses::total        55004                       # number of WriteReq MSHR misses
system.cpu0.dcache.WriteReq_mshr_miss_latency::.cpu0.data   1381143500                       # number of WriteReq MSHR miss cycles
system.cpu0.dcache.WriteReq_mshr_miss_latency::total   1381143500                       # number of WriteReq MSHR miss cycles
system.cpu0.dcache.WriteReq_mshr_miss_rate::.cpu0.data     0.028328                       # mshr miss rate for WriteReq accesses
system.cpu0.dcache.WriteReq_mshr_miss_rate::total     0.028328                       # mshr miss rate for WriteReq accesses
system.cpu0.dcache.WriteReq_avg_mshr_miss_latency::.cpu0.data 25109.873827                       # average WriteReq mshr miss latency
system.cpu0.dcache.WriteReq_avg_mshr_miss_latency::total 25109.873827                       # average WriteReq mshr miss latency
system.cpu0.dcache.SoftPFReq_hits::.cpu0.data          419                       # number of SoftPFReq hits
system.cpu0.dcache.SoftPFReq_hits::total          419                       # number of SoftPFReq hits
system.cpu0.dcache.SoftPFReq_misses::.cpu0.data         6972                       # number of SoftPFReq misses
system.cpu0.dcache.SoftPFReq_misses::total         6972                       # number of SoftPFReq misses
system.cpu0.dcache.SoftPFReq_accesses::.cpu0.data         7391                       # number of SoftPFReq accesses(hits+misses)
system.cpu0.dcache.SoftPFReq_accesses::total         7391                       # number of SoftPFReq accesses(hits+misses)
system.cpu0.dcache.SoftPFReq_miss_rate::.cpu0.data     0.943309                       # miss rate for SoftPFReq accesses
system.cpu0.dcache.SoftPFReq_miss_rate::total     0.943309                       # miss rate for SoftPFReq accesses
system.cpu0.dcache.SoftPFReq_mshr_misses::.cpu0.data         3743                       # number of SoftPFReq MSHR misses
system.cpu0.dcache.SoftPFReq_mshr_misses::total         3743                       # number of SoftPFReq MSHR misses
system.cpu0.dcache.SoftPFReq_mshr_miss_latency::.cpu0.data    299540500                       # number of SoftPFReq MSHR miss cycles
system.cpu0.dcache.SoftPFReq_mshr_miss_latency::total    299540500                       # number of SoftPFReq MSHR miss cycles
system.cpu0.dcache.SoftPFReq_mshr_miss_rate::.cpu0.data     0.506427                       # mshr miss rate for SoftPFReq accesses
system.cpu0.dcache.SoftPFReq_mshr_miss_rate::total     0.506427                       # mshr miss rate for SoftPFReq accesses
system.cpu0.dcache.SoftPFReq_avg_mshr_miss_latency::.cpu0.data 80026.850120                       # average SoftPFReq mshr miss latency
system.cpu0.dcache.SoftPFReq_avg_mshr_miss_latency::total 80026.850120                       # average SoftPFReq mshr miss latency
system.cpu0.dcache.power_state.pwrStateResidencyTicks::UNDEFINED  14010015500                       # Cumulative time (in ticks) in various power states
system.cpu0.dcache.tags.tagsinuse           15.998948                       # Cycle average of tags in use
system.cpu0.dcache.tags.total_refs            6083216                       # Total number of references to valid blocks.
system.cpu0.dcache.tags.sampled_refs           221372                       # Sample count of references to valid blocks.
system.cpu0.dcache.tags.avg_refs            27.479609                       # Average number of references to valid blocks.
system.cpu0.dcache.tags.warmup_cycle           178500                       # Cycle when the warmup percentage was hit.
system.cpu0.dcache.tags.occ_blocks::.cpu0.data    15.998948                       # Average occupied blocks per requestor
system.cpu0.dcache.tags.occ_percent::.cpu0.data     0.999934                       # Average percentage of cache occupancy
system.cpu0.dcache.tags.occ_percent::total     0.999934                       # Average percentage of cache occupancy
system.cpu0.dcache.tags.occ_task_id_blocks::1024           16                       # Occupied blocks per task id
system.cpu0.dcache.tags.age_task_id_blocks_1024::0           12                       # Occupied blocks per task id
system.cpu0.dcache.tags.age_task_id_blocks_1024::1            4                       # Occupied blocks per task id
system.cpu0.dcache.tags.occ_task_id_percent::1024            1                       # Percentage of cache occupancy per task id
system.cpu0.dcache.tags.tag_accesses         48983996                       # Number of tag accesses
system.cpu0.dcache.tags.data_accesses        48983996                       # Number of data accesses
system.cpu0.dcache.tags.power_state.pwrStateResidencyTicks::UNDEFINED  14010015500                       # Cumulative time (in ticks) in various power states
system.cpu0.power_state.pwrStateResidencyTicks::ON  14010015500                       # Cumulative time (in ticks) in various power states
system.cpu0.itb.walker.power_state.pwrStateResidencyTicks::UNDEFINED  14010015500                       # Cumulative time (in ticks) in various power states
system.cpu1.icache.demand_hits::.cpu1.inst      1588283                       # number of demand (read+write) hits
system.cpu1.icache.demand_hits::total         1588283                       # number of demand (read+write) hits
system.cpu1.icache.overall_hits::.cpu1.inst      1588283                       # number of overall hits
system.cpu1.icache.overall_hits::total        1588283                       # number of overall hits
system.cpu1.icache.demand_misses::.cpu1.inst       351166                       # number of demand (read+write) misses
system.cpu1.icache.demand_misses::total        351166                       # number of demand (read+write) misses
system.cpu1.icache.overall_misses::.cpu1.inst       351166                       # number of overall misses
system.cpu1.icache.overall_misses::total       351166                       # number of overall misses
system.cpu1.icache.demand_miss_latency::.cpu1.inst   5553415500                       # number of demand (read+write) miss cycles
system.cpu1.icache.demand_miss_latency::total   5553415500                       # number of demand (read+write) miss cycles
system.cpu1.icache.overall_miss_latency::.cpu1.inst   5553415500                       # number of overall miss cycles
system.cpu1.icache.overall_miss_latency::total   5553415500                       # number of overall miss cycles
system.cpu1.icache.demand_accesses::.cpu1.inst      1939449                       # number of demand (read+write) accesses
system.cpu1.icache.demand_accesses::total      1939449                       # number of demand (read+write) accesses
system.cpu1.icache.overall_accesses::.cpu1.inst      1939449                       # number of overall (read+write) accesses
system.cpu1.icache.overall_accesses::total      1939449                       # number of overall (read+write) accesses
system.cpu1.icache.demand_miss_rate::.cpu1.inst     0.181065                       # miss rate for demand accesses
system.cpu1.icache.demand_miss_rate::total     0.181065                       # miss rate for demand accesses
system.cpu1.icache.overall_miss_rate::.cpu1.inst     0.181065                       # miss rate for overall accesses
system.cpu1.icache.overall_miss_rate::total     0.181065                       # miss rate for overall accesses
system.cpu1.icache.demand_avg_miss_latency::.cpu1.inst 15814.217493                       # average overall miss latency
system.cpu1.icache.demand_avg_miss_latency::total 15814.217493                       # average overall miss latency
system.cpu1.icache.overall_avg_miss_latency::.cpu1.inst 15814.217493                       # average overall miss latency
system.cpu1.icache.overall_avg_miss_latency::total 15814.217493                       # average overall miss latency
system.cpu1.icache.blocked_cycles::no_mshrs            0                       # number of cycles access was blocked
system.cpu1.icache.blocked_cycles::no_targets            0                       # number of cycles access was blocked
system.cpu1.icache.blocked::no_mshrs                0                       # number of cycles access was blocked
system.cpu1.icache.blocked::no_targets              0                       # number of cycles access was blocked
system.cpu1.icache.avg_blocked_cycles::no_mshrs          nan                       # average number of cycles each access was blocked
system.cpu1.icache.avg_blocked_cycles::no_targets          nan                       # average number of cycles each access was blocked
system.cpu1.icache.writebacks::.writebacks       351149                       # number of writebacks
system.cpu1.icache.writebacks::total           351149                       # number of writebacks
system.cpu1.icache.demand_mshr_misses::.cpu1.inst       351166                       # number of demand (read+write) MSHR misses
system.cpu1.icache.demand_mshr_misses::total       351166                       # number of demand (read+write) MSHR misses
system.cpu1.icache.overall_mshr_misses::.cpu1.inst       351166                       # number of overall MSHR misses
system.cpu1.icache.overall_mshr_misses::total       351166                       # number of overall MSHR misses
system.cpu1.icache.demand_mshr_miss_latency::.cpu1.inst   5202250500                       # number of demand (read+write) MSHR miss cycles
system.cpu1.icache.demand_mshr_miss_latency::total   5202250500                       # number of demand (read+write) MSHR miss cycles
system.cpu1.icache.overall_mshr_miss_latency::.cpu1.inst   5202250500                       # number of overall MSHR miss cycles
system.cpu1.icache.overall_mshr_miss_latency::total   5202250500                       # number of overall MSHR miss cycles
system.cpu1.icache.demand_mshr_miss_rate::.cpu1.inst     0.181065                       # mshr miss rate for demand accesses
system.cpu1.icache.demand_mshr_miss_rate::total     0.181065                       # mshr miss rate for demand accesses
system.cpu1.icache.overall_mshr_miss_rate::.cpu1.inst     0.181065                       # mshr miss rate for overall accesses
system.cpu1.icache.overall_mshr_miss_rate::total     0.181065                       # mshr miss rate for overall accesses
system.cpu1.icache.demand_avg_mshr_miss_latency::.cpu1.inst 14814.220340                       # average overall mshr miss latency
system.cpu1.icache.demand_avg_mshr_miss_latency::total 14814.220340                       # average overall mshr miss latency
system.cpu1.icache.overall_avg_mshr_miss_latency::.cpu1.inst 14814.220340                       # average overall mshr miss latency
system.cpu1.icache.overall_avg_mshr_miss_latency::total 14814.220340                       # average overall mshr miss latency
system.cpu1.icache.replacements                351149                       # number of replacements
system.cpu1.icache.ReadReq_hits::.cpu1.inst      1588283                       # number of ReadReq hits
system.cpu1.icache.ReadReq_hits::total        1588283                       # number of ReadReq hits
system.cpu1.icache.ReadReq_misses::.cpu1.inst       351166                       # number of ReadReq misses
system.cpu1.icache.ReadReq_misses::total       351166                       # number of ReadReq misses
system.cpu1.icache.ReadReq_miss_latency::.cpu1.inst   5553415500                       # number of ReadReq miss cycles
system.cpu1.icache.ReadReq_miss_latency::total   5553415500                       # number of ReadReq miss cycles
system.cpu1.icache.ReadReq_accesses::.cpu1.inst      1939449                       # number of ReadReq accesses(hits+misses)
system.cpu1.icache.ReadReq_accesses::total      1939449                       # number of ReadReq accesses(hits+misses)
system.cpu1.icache.ReadReq_miss_rate::.cpu1.inst     0.181065                       # miss rate for ReadReq accesses
system.cpu1.icache.ReadReq_miss_rate::total     0.181065                       # miss rate for ReadReq accesses
system.cpu1.icache.ReadReq_avg_miss_latency::.cpu1.inst 15814.217493                       # average ReadReq miss latency
system.cpu1.icache.ReadReq_avg_miss_latency::total 15814.217493                       # average ReadReq miss latency
system.cpu1.icache.ReadReq_mshr_misses::.cpu1.inst       351166                       # number of ReadReq MSHR misses
system.cpu1.icache.ReadReq_mshr_misses::total       351166                       # number of ReadReq MSHR misses
system.cpu1.icache.ReadReq_mshr_miss_latency::.cpu1.inst   5202250500                       # number of ReadReq MSHR miss cycles
system.cpu1.icache.ReadReq_mshr_miss_latency::total   5202250500                       # number of ReadReq MSHR miss cycles
system.cpu1.icache.ReadReq_mshr_miss_rate::.cpu1.inst     0.181065                       # mshr miss rate for ReadReq accesses
system.cpu1.icache.ReadReq_mshr_miss_rate::total     0.181065                       # mshr miss rate for ReadReq accesses
system.cpu1.icache.ReadReq_avg_mshr_miss_latency::.cpu1.inst 14814.220340                       # average ReadReq mshr miss latency
system.cpu1.icache.ReadReq_avg_mshr_miss_latency::total 14814.220340                       # average ReadReq mshr miss latency
system.cpu1.icache.power_state.pwrStateResidencyTicks::UNDEFINED  14010015500                       # Cumulative time (in ticks) in various power states
system.cpu1.icache.tags.tagsinuse           15.998996                       # Cycle average of tags in use
system.cpu1.icache.tags.total_refs            1939448                       # Total number of references to valid blocks.
system.cpu1.icache.tags.sampled_refs           351165                       # Sample count of references to valid blocks.
system.cpu1.icache.tags.avg_refs             5.522897                       # Average number of references to valid blocks.
system.cpu1.icache.tags.warmup_cycle            94500                       # Cycle when the warmup percentage was hit.
system.cpu1.icache.tags.occ_blocks::.cpu1.inst    15.998996                       # Average occupied blocks per requestor
system.cpu1.icache.tags.occ_percent::.cpu1.inst     0.999937                       # Average percentage of cache occupancy
system.cpu1.icache.tags.occ_percent::total     0.999937                       # Average percentage of cache occupancy
system.cpu1.icache.tags.occ_task_id_blocks::1024           16                       # Occupied blocks per task id
system.cpu1.icache.tags.age_task_id_blocks_1024::0           16                       # Occupied blocks per task id
system.cpu1.icache.tags.occ_task_id_percent::1024            1                       # Percentage of cache occupancy per task id
system.cpu1.icache.tags.tag_accesses         15866757                       # Number of tag accesses
system.cpu1.icache.tags.data_accesses        15866757                       # Number of data accesses
system.cpu1.icache.tags.power_state.pwrStateResidencyTicks::UNDEFINED  14010015500                       # Cumulative time (in ticks) in various power states
system.cpu1.dtb.walker.power_state.pwrStateResidencyTicks::UNDEFINED  14010015500                       # Cumulative time (in ticks) in various power states
system.cpu1.interrupts.clk_domain.clock          8000                       # Clock period in ticks
system.cpu1.itb_walker_cache.blocked_cycles::no_mshrs            0                       # number of cycles access was blocked
system.cpu1.itb_walker_cache.blocked_cycles::no_targets            0                       # number of cycles access was blocked
system.cpu1.itb_walker_cache.blocked::no_mshrs            0                       # number of cycles access was blocked
system.cpu1.itb_walker_cache.blocked::no_targets            0                       # number of cycles access was blocked
system.cpu1.itb_walker_cache.avg_blocked_cycles::no_mshrs          nan                       # average number of cycles each access was blocked
system.cpu1.itb_walker_cache.avg_blocked_cycles::no_targets          nan                       # average number of cycles each access was blocked
system.cpu1.itb_walker_cache.replacements            0                       # number of replacements
system.cpu1.itb_walker_cache.power_state.pwrStateResidencyTicks::UNDEFINED  14010015500                       # Cumulative time (in ticks) in various power states
system.cpu1.itb_walker_cache.tags.tagsinuse            0                       # Cycle average of tags in use
system.cpu1.itb_walker_cache.tags.total_refs            0                       # Total number of references to valid blocks.
system.cpu1.itb_walker_cache.tags.sampled_refs            0                       # Sample count of references to valid blocks.
system.cpu1.itb_walker_cache.tags.avg_refs          nan                       # Average number of references to valid blocks.
system.cpu1.itb_walker_cache.tags.warmup_cycle            0                       # Cycle when the warmup percentage was hit.
system.cpu1.itb_walker_cache.tags.tag_accesses            0                       # Number of tag accesses
system.cpu1.itb_walker_cache.tags.data_accesses            0                       # Number of data accesses
system.cpu1.itb_walker_cache.tags.power_state.pwrStateResidencyTicks::UNDEFINED  14010015500                       # Cumulative time (in ticks) in various power states
system.cpu1.dtb_walker_cache.blocked_cycles::no_mshrs            0                       # number of cycles access was blocked
system.cpu1.dtb_walker_cache.blocked_cycles::no_targets            0                       # number of cycles access was blocked
system.cpu1.dtb_walker_cache.blocked::no_mshrs            0                       # number of cycles access was blocked
system.cpu1.dtb_walker_cache.blocked::no_targets            0                       # number of cycles access was blocked
system.cpu1.dtb_walker_cache.avg_blocked_cycles::no_mshrs          nan                       # average number of cycles each access was blocked
system.cpu1.dtb_walker_cache.avg_blocked_cycles::no_targets          nan                       # average number of cycles each access was blocked
system.cpu1.dtb_walker_cache.replacements            0                       # number of replacements
system.cpu1.dtb_walker_cache.power_state.pwrStateResidencyTicks::UNDEFINED  14010015500                       # Cumulative time (in ticks) in various power states
system.cpu1.dtb_walker_cache.tags.tagsinuse            0                       # Cycle average of tags in use
system.cpu1.dtb_walker_cache.tags.total_refs            0                       # Total number of references to valid blocks.
system.cpu1.dtb_walker_cache.tags.sampled_refs            0                       # Sample count of references to valid blocks.
system.cpu1.dtb_walker_cache.tags.avg_refs          nan                       # Average number of references to valid blocks.
system.cpu1.dtb_walker_cache.tags.warmup_cycle            0                       # Cycle when the warmup percentage was hit.
system.cpu1.dtb_walker_cache.tags.tag_accesses            0                       # Number of tag accesses
system.cpu1.dtb_walker_cache.tags.data_accesses            0                       # Number of data accesses
system.cpu1.dtb_walker_cache.tags.power_state.pwrStateResidencyTicks::UNDEFINED  14010015500                       # Cumulative time (in ticks) in various power states
system.cpu1.dcache.demand_hits::.cpu1.data      1289794                       # number of demand (read+write) hits
system.cpu1.dcache.demand_hits::total         1289794                       # number of demand (read+write) hits
system.cpu1.dcache.overall_hits::.cpu1.data      1290711                       # number of overall hits
system.cpu1.dcache.overall_hits::total        1290711                       # number of overall hits
system.cpu1.dcache.demand_misses::.cpu1.data       257838                       # number of demand (read+write) misses
system.cpu1.dcache.demand_misses::total        257838                       # number of demand (read+write) misses
system.cpu1.dcache.overall_misses::.cpu1.data       258971                       # number of overall misses
system.cpu1.dcache.overall_misses::total       258971                       # number of overall misses
system.cpu1.dcache.demand_miss_latency::.cpu1.data   6915741000                       # number of demand (read+write) miss cycles
system.cpu1.dcache.demand_miss_latency::total   6915741000                       # number of demand (read+write) miss cycles
system.cpu1.dcache.overall_miss_latency::.cpu1.data   6915741000                       # number of overall miss cycles
system.cpu1.dcache.overall_miss_latency::total   6915741000                       # number of overall miss cycles
system.cpu1.dcache.demand_accesses::.cpu1.data      1547632                       # number of demand (read+write) accesses
system.cpu1.dcache.demand_accesses::total      1547632                       # number of demand (read+write) accesses
system.cpu1.dcache.overall_accesses::.cpu1.data      1549682                       # number of overall (read+write) accesses
system.cpu1.dcache.overall_accesses::total      1549682                       # number of overall (read+write) accesses
system.cpu1.dcache.demand_miss_rate::.cpu1.data     0.166602                       # miss rate for demand accesses
system.cpu1.dcache.demand_miss_rate::total     0.166602                       # miss rate for demand accesses
system.cpu1.dcache.overall_miss_rate::.cpu1.data     0.167112                       # miss rate for overall accesses
system.cpu1.dcache.overall_miss_rate::total     0.167112                       # miss rate for overall accesses
system.cpu1.dcache.demand_avg_miss_latency::.cpu1.data 26822.039420                       # average overall miss latency
system.cpu1.dcache.demand_avg_miss_latency::total 26822.039420                       # average overall miss latency
system.cpu1.dcache.overall_avg_miss_latency::.cpu1.data 26704.692803                       # average overall miss latency
system.cpu1.dcache.overall_avg_miss_latency::total 26704.692803                       # average overall miss latency
system.cpu1.dcache.blocked_cycles::no_mshrs            5                       # number of cycles access was blocked
system.cpu1.dcache.blocked_cycles::no_targets            0                       # number of cycles access was blocked
system.cpu1.dcache.blocked::no_mshrs                2                       # number of cycles access was blocked
system.cpu1.dcache.blocked::no_targets              0                       # number of cycles access was blocked
system.cpu1.dcache.avg_blocked_cycles::no_mshrs     2.500000                       # average number of cycles each access was blocked
system.cpu1.dcache.avg_blocked_cycles::no_targets          nan                       # average number of cycles each access was blocked
system.cpu1.dcache.writebacks::.writebacks        96339                       # number of writebacks
system.cpu1.dcache.writebacks::total            96339                       # number of writebacks
system.cpu1.dcache.demand_mshr_hits::.cpu1.data        47702                       # number of demand (read+write) MSHR hits
system.cpu1.dcache.demand_mshr_hits::total        47702                       # number of demand (read+write) MSHR hits
system.cpu1.dcache.overall_mshr_hits::.cpu1.data        47702                       # number of overall MSHR hits
system.cpu1.dcache.overall_mshr_hits::total        47702                       # number of overall MSHR hits
system.cpu1.dcache.demand_mshr_misses::.cpu1.data       210136                       # number of demand (read+write) MSHR misses
system.cpu1.dcache.demand_mshr_misses::total       210136                       # number of demand (read+write) MSHR misses
system.cpu1.dcache.overall_mshr_misses::.cpu1.data       211172                       # number of overall MSHR misses
system.cpu1.dcache.overall_mshr_misses::total       211172                       # number of overall MSHR misses
system.cpu1.dcache.demand_mshr_miss_latency::.cpu1.data   5152287500                       # number of demand (read+write) MSHR miss cycles
system.cpu1.dcache.demand_mshr_miss_latency::total   5152287500                       # number of demand (read+write) MSHR miss cycles
system.cpu1.dcache.overall_mshr_miss_latency::.cpu1.data   5199539000                       # number of overall MSHR miss cycles
system.cpu1.dcache.overall_mshr_miss_latency::total   5199539000                       # number of overall MSHR miss cycles
system.cpu1.dcache.demand_mshr_miss_rate::.cpu1.data     0.135779                       # mshr miss rate for demand accesses
system.cpu1.dcache.demand_mshr_miss_rate::total     0.135779                       # mshr miss rate for demand accesses
system.cpu1.dcache.overall_mshr_miss_rate::.cpu1.data     0.136268                       # mshr miss rate for overall accesses
system.cpu1.dcache.overall_mshr_miss_rate::total     0.136268                       # mshr miss rate for overall accesses
system.cpu1.dcache.demand_avg_mshr_miss_latency::.cpu1.data 24518.823524                       # average overall mshr miss latency
system.cpu1.dcache.demand_avg_mshr_miss_latency::total 24518.823524                       # average overall mshr miss latency
system.cpu1.dcache.overall_avg_mshr_miss_latency::.cpu1.data 24622.293675                       # average overall mshr miss latency
system.cpu1.dcache.overall_avg_mshr_miss_latency::total 24622.293675                       # average overall mshr miss latency
system.cpu1.dcache.replacements                211156                       # number of replacements
system.cpu1.dcache.ReadReq_hits::.cpu1.data       839542                       # number of ReadReq hits
system.cpu1.dcache.ReadReq_hits::total         839542                       # number of ReadReq hits
system.cpu1.dcache.ReadReq_misses::.cpu1.data       157834                       # number of ReadReq misses
system.cpu1.dcache.ReadReq_misses::total       157834                       # number of ReadReq misses
system.cpu1.dcache.ReadReq_miss_latency::.cpu1.data   3642912000                       # number of ReadReq miss cycles
system.cpu1.dcache.ReadReq_miss_latency::total   3642912000                       # number of ReadReq miss cycles
system.cpu1.dcache.ReadReq_accesses::.cpu1.data       997376                       # number of ReadReq accesses(hits+misses)
system.cpu1.dcache.ReadReq_accesses::total       997376                       # number of ReadReq accesses(hits+misses)
system.cpu1.dcache.ReadReq_miss_rate::.cpu1.data     0.158249                       # miss rate for ReadReq accesses
system.cpu1.dcache.ReadReq_miss_rate::total     0.158249                       # miss rate for ReadReq accesses
system.cpu1.dcache.ReadReq_avg_miss_latency::.cpu1.data 23080.654358                       # average ReadReq miss latency
system.cpu1.dcache.ReadReq_avg_miss_latency::total 23080.654358                       # average ReadReq miss latency
system.cpu1.dcache.ReadReq_mshr_hits::.cpu1.data         4995                       # number of ReadReq MSHR hits
[...]
system.mem_ctrls.bytesPerActivate::640-767          394      1.42%     91.75% # Bytes accessed per row activation
system.mem_ctrls.bytesPerActivate::768-895          261      0.94%     92.69% # Bytes accessed per row activation
system.mem_ctrls.bytesPerActivate::896-1023          218      0.78%     93.47% # Bytes accessed per row activation
system.mem_ctrls.bytesPerActivate::1024-1151         1815      6.53%    100.00% # Bytes accessed per row activation
system.mem_ctrls.bytesPerActivate::total        27808                       # Bytes accessed per row activation
system.mem_ctrls.rdPerTurnAround::samples         1519                       # Reads before turning the bus around for writes
system.mem_ctrls.rdPerTurnAround::mean      43.410797                       # Reads before turning the bus around for writes
system.mem_ctrls.rdPerTurnAround::gmean     29.344277                       # Reads before turning the bus around for writes
system.mem_ctrls.rdPerTurnAround::stdev     56.914572                       # Reads before turning the bus around for writes
system.mem_ctrls.rdPerTurnAround::0-31           1002     65.96%     65.96% # Reads before turning the bus around for writes
system.mem_ctrls.rdPerTurnAround::32-63           240     15.80%     81.76% # Reads before turning the bus around for writes
system.mem_ctrls.rdPerTurnAround::64-95            97      6.39%     88.15% # Reads before turning the bus around for writes
system.mem_ctrls.rdPerTurnAround::96-127           75      4.94%     93.09% # Reads before turning the bus around for writes
system.mem_ctrls.rdPerTurnAround::128-159           44      2.90%     95.98% # Reads before turning the bus around for writes
system.mem_ctrls.rdPerTurnAround::160-191           28      1.84%     97.83% # Reads before turning the bus around for writes
system.mem_ctrls.rdPerTurnAround::192-223           10      0.66%     98.49% # Reads before turning the bus around for writes
system.mem_ctrls.rdPerTurnAround::224-255            7      0.46%     98.95% # Reads before turning the bus around for writes
system.mem_ctrls.rdPerTurnAround::256-287            5      0.33%     99.28% # Reads before turning the bus around for writes
system.mem_ctrls.rdPerTurnAround::288-319            2      0.13%     99.41% # Reads before turning the bus around for writes
system.mem_ctrls.rdPerTurnAround::320-351            2      0.13%     99.54% # Reads before turning the bus around for writes
system.mem_ctrls.rdPerTurnAround::352-383            2      0.13%     99.67% # Reads before turning the bus around for writes
system.mem_ctrls.rdPerTurnAround::384-415            1      0.07%     99.74% # Reads before turning the bus around for writes
system.mem_ctrls.rdPerTurnAround::416-447            2      0.13%     99.87% # Reads before turning the bus around for writes
system.mem_ctrls.rdPerTurnAround::480-511            1      0.07%     99.93% # Reads before turning the bus around for writes
system.mem_ctrls.rdPerTurnAround::992-1023            1      0.07%    100.00% # Reads before turning the bus around for writes
system.mem_ctrls.rdPerTurnAround::total          1519                       # Reads before turning the bus around for writes
system.mem_ctrls.wrPerTurnAround::samples         1519                       # Writes before turning the bus around for reads
system.mem_ctrls.wrPerTurnAround::mean      16.427913                       # Writes before turning the bus around for reads
system.mem_ctrls.wrPerTurnAround::gmean     16.406884                       # Writes before turning the bus around for reads
system.mem_ctrls.wrPerTurnAround::stdev      0.855062                       # Writes before turning the bus around for reads
system.mem_ctrls.wrPerTurnAround::16             1198     78.87%     78.87% # Writes before turning the bus around for reads
system.mem_ctrls.wrPerTurnAround::17               24      1.58%     80.45% # Writes before turning the bus around for reads
system.mem_ctrls.wrPerTurnAround::18              270     17.77%     98.22% # Writes before turning the bus around for reads
system.mem_ctrls.wrPerTurnAround::19               24      1.58%     99.80% # Writes before turning the bus around for reads
system.mem_ctrls.wrPerTurnAround::20                2      0.13%     99.93% # Writes before turning the bus around for reads
system.mem_ctrls.wrPerTurnAround::22                1      0.07%    100.00% # Writes before turning the bus around for reads
system.mem_ctrls.wrPerTurnAround::total          1519                       # Writes before turning the bus around for reads
system.mem_ctrls.bytesReadDRAM                4223424                       # Total number of bytes read from DRAM
system.mem_ctrls.bytesReadWrQ                   68096                       # Total number of bytes read from write queue
system.mem_ctrls.bytesWritten                 1597056                       # Total number of bytes written to DRAM
system.mem_ctrls.bytesReadSys                 4291520                       # Total read bytes from the system interface side
system.mem_ctrls.bytesWrittenSys              1627072                       # Total written bytes from the system interface side
system.mem_ctrls.avgRdBW                       301.46                       # Average DRAM read bandwidth in MiByte/s
system.mem_ctrls.avgWrBW                       113.99                       # Average achieved write bandwidth in MiByte/s
system.mem_ctrls.avgRdBWSys                    306.32                       # Average system read bandwidth in MiByte/s
system.mem_ctrls.avgWrBWSys                    116.14                       # Average system write bandwidth in MiByte/s
system.mem_ctrls.peakBW                      12800.00                       # Theoretical peak bandwidth in MiByte/s
system.mem_ctrls.busUtil                         3.25                       # Data bus utilization in percentage
system.mem_ctrls.busUtilRead                     2.36                       # Data bus utilization in percentage for reads
system.mem_ctrls.busUtilWrite                    0.89                       # Data bus utilization in percentage for writes
system.mem_ctrls.totGap                   14009928000                       # Total gap between requests
system.mem_ctrls.avgGap                     151494.71                       # Average gap between requests
system.mem_ctrls.masterReadBytes::.cpu0.inst       143680                       # Per-master bytes read from memory
system.mem_ctrls.masterReadBytes::.cpu0.data       968704                       # Per-master bytes read from memory
system.mem_ctrls.masterReadBytes::.cpu1.inst       842944                       # Per-master bytes read from memory
system.mem_ctrls.masterReadBytes::.cpu1.data      2268096                       # Per-master bytes read from memory
system.mem_ctrls.masterWriteBytes::.writebacks      1597056                       # Per-master bytes write to memory
system.mem_ctrls.masterReadRate::.cpu0.inst 10255520.416804676875                       # Per-master bytes read from memory rate (Bytes/sec)
system.mem_ctrls.masterReadRate::.cpu0.data 69143677.963810965419                       # Per-master bytes read from memory rate (Bytes/sec)
system.mem_ctrls.masterReadRate::.cpu1.inst 60167242.498768113554                       # Per-master bytes read from memory rate (Bytes/sec)
system.mem_ctrls.masterReadRate::.cpu1.data 161891041.448169708252                       # Per-master bytes read from memory rate (Bytes/sec)
system.mem_ctrls.masterWriteRate::.writebacks 113993878.165231153369                       # Per-master bytes write to memory rate (Bytes/sec)
system.mem_ctrls.masterReadAccesses::.cpu0.inst         2245                       # Per-master read serviced memory accesses
system.mem_ctrls.masterReadAccesses::.cpu0.data        15282                       # Per-master read serviced memory accesses
system.mem_ctrls.masterReadAccesses::.cpu1.inst        13171                       # Per-master read serviced memory accesses
system.mem_ctrls.masterReadAccesses::.cpu1.data        36357                       # Per-master read serviced memory accesses
system.mem_ctrls.masterWriteAccesses::.writebacks        25423                       # Per-master write serviced memory accesses
system.mem_ctrls.masterReadTotalLat::.cpu0.inst     64133000                       # Per-master read total memory access latency
system.mem_ctrls.masterReadTotalLat::.cpu0.data    493019250                       # Per-master read total memory access latency
system.mem_ctrls.masterReadTotalLat::.cpu1.inst    404686250                       # Per-master read total memory access latency
system.mem_ctrls.masterReadTotalLat::.cpu1.data   1157566750                       # Per-master read total memory access latency
system.mem_ctrls.masterWriteTotalLat::.writebacks 333604353500                       # Per-master write total memory access latency
system.mem_ctrls.masterReadAvgLat::.cpu0.inst     28567.04                       # Per-master read average memory access latency
system.mem_ctrls.masterReadAvgLat::.cpu0.data     32261.44                       # Per-master read average memory access latency
system.mem_ctrls.masterReadAvgLat::.cpu1.inst     30725.55                       # Per-master read average memory access latency
system.mem_ctrls.masterReadAvgLat::.cpu1.data     31838.90                       # Per-master read average memory access latency
system.mem_ctrls.masterWriteAvgLat::.writebacks  13122147.41                       # Per-master write average memory access latency
system.mem_ctrls.pageHitRate                    69.39                       # Row buffer hit rate, read and write combined
system.mem_ctrls.rank1.actEnergy             99553020                       # Energy for activate commands per rank (pJ)
system.mem_ctrls.rank1.preEnergy             52894710                       # Energy for precharge commands per rank (pJ)
system.mem_ctrls.rank1.readEnergy           239225700                       # Energy for read commands per rank (pJ)
system.mem_ctrls.rank1.writeEnergy           65495340                       # Energy for write commands per rank (pJ)
system.mem_ctrls.rank1.refreshEnergy     1105737360.000000                       # Energy for refresh commands per rank (pJ)
system.mem_ctrls.rank1.actBackEnergy       5492543940                       # Energy for active background per rank (pJ)
system.mem_ctrls.rank1.preBackEnergy        754546080                       # Energy for precharge background per rank (pJ)
system.mem_ctrls.rank1.actPowerDownEnergy            0                       # Energy for active power-down per rank (pJ)
system.mem_ctrls.rank1.prePowerDownEnergy            0                       # Energy for precharge power-down per rank (pJ)
system.mem_ctrls.rank1.selfRefreshEnergy            0                       # Energy for self refresh per rank (pJ)
system.mem_ctrls.rank1.totalEnergy         7809996150                       # Total energy per rank (pJ)
system.mem_ctrls.rank1.averagePower        557.458066                       # Core power per rank (mW)
system.mem_ctrls.rank1.totalIdleTime                0                       # Total Idle time Per DRAM Rank
system.mem_ctrls.rank1.memoryStateTime::IDLE   1910773750                       # Time in different power states
system.mem_ctrls.rank1.memoryStateTime::REF    467740000                       # Time in different power states
system.mem_ctrls.rank1.memoryStateTime::SREF            0                       # Time in different power states
system.mem_ctrls.rank1.memoryStateTime::PRE_PDN            0                       # Time in different power states
system.mem_ctrls.rank1.memoryStateTime::ACT  11631501750                       # Time in different power states
system.mem_ctrls.rank1.memoryStateTime::ACT_PDN            0                       # Time in different power states
system.mem_ctrls.rank0.actEnergy             99046080                       # Energy for activate commands per rank (pJ)
system.mem_ctrls.rank0.preEnergy             52636650                       # Energy for precharge commands per rank (pJ)
system.mem_ctrls.rank0.readEnergy           231950040                       # Energy for read commands per rank (pJ)
system.mem_ctrls.rank0.writeEnergy           64764540                       # Energy for write commands per rank (pJ)
system.mem_ctrls.rank0.refreshEnergy     1105737360.000000                       # Energy for refresh commands per rank (pJ)
system.mem_ctrls.rank0.actBackEnergy       5474758800                       # Energy for active background per rank (pJ)
system.mem_ctrls.rank0.preBackEnergy        769523040                       # Energy for precharge background per rank (pJ)
system.mem_ctrls.rank0.actPowerDownEnergy            0                       # Energy for active power-down per rank (pJ)
system.mem_ctrls.rank0.prePowerDownEnergy            0                       # Energy for precharge power-down per rank (pJ)
system.mem_ctrls.rank0.selfRefreshEnergy            0                       # Energy for self refresh per rank (pJ)
system.mem_ctrls.rank0.totalEnergy         7798416510                       # Total energy per rank (pJ)
system.mem_ctrls.rank0.averagePower        556.631540                       # Core power per rank (mW)
system.mem_ctrls.rank0.totalIdleTime                0                       # Total Idle time Per DRAM Rank
system.mem_ctrls.rank0.memoryStateTime::IDLE   1949626250                       # Time in different power states
system.mem_ctrls.rank0.memoryStateTime::REF    467740000                       # Time in different power states
system.mem_ctrls.rank0.memoryStateTime::SREF            0                       # Time in different power states
system.mem_ctrls.rank0.memoryStateTime::PRE_PDN            0                       # Time in different power states
system.mem_ctrls.rank0.memoryStateTime::ACT  11592649250                       # Time in different power states
system.mem_ctrls.rank0.memoryStateTime::ACT_PDN            0                       # Time in different power states
system.mem_ctrls.power_state.pwrStateResidencyTicks::UNDEFINED  14010015500                       # Cumulative time (in ticks) in various power states
system.cpu_clk_domain.clock                       500                       # Clock period in ticks
system.tol2bus.trans_dist::ReadResp            685202                       # Transaction distribution
system.tol2bus.trans_dist::WritebackDirty       182513                       # Transaction distribution
system.tol2bus.trans_dist::WritebackClean       364958                       # Transaction distribution
system.tol2bus.trans_dist::CleanEvict          316197                       # Transaction distribution
system.tol2bus.trans_dist::ReadExReq           112332                       # Transaction distribution
system.tol2bus.trans_dist::ReadExResp          112332                       # Transaction distribution
system.tol2bus.trans_dist::ReadCleanReq        364991                       # Transaction distribution
system.tol2bus.trans_dist::ReadSharedReq       320212                       # Transaction distribution
system.tol2bus.pkt_count_system.cpu0.icache.mem_side::system.l2.cpu_side        41459                       # Packet count per connected master and slave (bytes)
system.tol2bus.pkt_count_system.cpu0.dcache.mem_side::system.l2.cpu_side       664100                       # Packet count per connected master and slave (bytes)
system.tol2bus.pkt_count_system.cpu1.icache.mem_side::system.l2.cpu_side      1053480                       # Packet count per connected master and slave (bytes)
system.tol2bus.pkt_count_system.cpu1.dcache.mem_side::system.l2.cpu_side       633500                       # Packet count per connected master and slave (bytes)
system.tol2bus.pkt_count::total               2392539                       # Packet count per connected master and slave (bytes)
system.tol2bus.pkt_size_system.cpu0.icache.mem_side::system.l2.cpu_side      1768576                       # Cumulative packet size per connected master and slave (bytes)
system.tol2bus.pkt_size_system.cpu0.dcache.mem_side::system.l2.cpu_side     18055872                       # Cumulative packet size per connected master and slave (bytes)
system.tol2bus.pkt_size_system.cpu1.icache.mem_side::system.l2.cpu_side     44948096                       # Cumulative packet size per connected master and slave (bytes)
system.tol2bus.pkt_size_system.cpu1.dcache.mem_side::system.l2.cpu_side     19680704                       # Cumulative packet size per connected master and slave (bytes)
system.tol2bus.pkt_size::total               84453248                       # Cumulative packet size per connected master and slave (bytes)
system.tol2bus.snoops                           66198                       # Total snoops (count)
system.tol2bus.snoopTraffic                   1627072                       # Total snoop traffic (bytes)
system.tol2bus.snoop_fanout::samples           863733                       # Request fanout histogram
system.tol2bus.snoop_fanout::mean            0.000207                       # Request fanout histogram
system.tol2bus.snoop_fanout::stdev           0.014394                       # Request fanout histogram
system.tol2bus.snoop_fanout::underflows             0      0.00%      0.00% # Request fanout histogram
system.tol2bus.snoop_fanout::0                 863554     99.98%     99.98% # Request fanout histogram
system.tol2bus.snoop_fanout::1                    179      0.02%    100.00% # Request fanout histogram
system.tol2bus.snoop_fanout::2                      0      0.00%    100.00% # Request fanout histogram
system.tol2bus.snoop_fanout::3                      0      0.00%    100.00% # Request fanout histogram
system.tol2bus.snoop_fanout::4                      0      0.00%    100.00% # Request fanout histogram
system.tol2bus.snoop_fanout::5                      0      0.00%    100.00% # Request fanout histogram
system.tol2bus.snoop_fanout::6                      0      0.00%    100.00% # Request fanout histogram
system.tol2bus.snoop_fanout::7                      0      0.00%    100.00% # Request fanout histogram
system.tol2bus.snoop_fanout::8                      0      0.00%    100.00% # Request fanout histogram
system.tol2bus.snoop_fanout::overflows              0      0.00%    100.00% # Request fanout histogram
system.tol2bus.snoop_fanout::min_value              0                       # Request fanout histogram
system.tol2bus.snoop_fanout::max_value              1                       # Request fanout histogram
system.tol2bus.snoop_fanout::total             863733                       # Request fanout histogram
system.tol2bus.reqLayer0.occupancy         1319550500                       # Layer occupancy (ticks)
system.tol2bus.reqLayer0.utilization              9.4                       # Layer utilization (%)
system.tol2bus.respLayer5.occupancy         316948119                       # Layer occupancy (ticks)
system.tol2bus.respLayer5.utilization             2.3                       # Layer utilization (%)
system.tol2bus.respLayer4.occupancy         526851292                       # Layer occupancy (ticks)
system.tol2bus.respLayer4.utilization             3.8                       # Layer utilization (%)
system.tol2bus.respLayer1.occupancy         332237640                       # Layer occupancy (ticks)
system.tol2bus.respLayer1.utilization             2.4                       # Layer utilization (%)
system.tol2bus.respLayer0.occupancy          20760953                       # Layer occupancy (ticks)
system.tol2bus.respLayer0.utilization             0.1                       # Layer utilization (%)
system.tol2bus.power_state.pwrStateResidencyTicks::UNDEFINED  14010015500                       # Cumulative time (in ticks) in various power states

---------- End Simulation Statistics   ----------
