
---------- Begin Simulation Statistics ----------
final_tick                                14157574500                       # Number of ticks from beginning of simulation (restored from checkpoints and never reset)
host_inst_rate                                 256280                       # Simulator instruction rate (inst/s)
host_mem_usage                                4423536                       # Number of bytes of host memory used
host_op_rate                                   434198                       # Simulator op (including micro ops) rate (op/s)
host_seconds                                    46.51                       # Real time elapsed on the host
host_tick_rate                              304423890                       # Simulator tick rate (ticks/s)
sim_freq                                 1000000000000                       # Frequency of simulated ticks
sim_insts                                    11918575                       # Number of instructions simulated
sim_ops                                      20192876                       # Number of ops (including micro ops) simulated
sim_seconds                                  0.014158                       # Number of seconds simulated
sim_ticks                                 14157574500                       # Number of ticks simulated
system.cpu0.branchPred.BTBCorrect                   0                       # Number of correct BTB predictions (this stat may not work properly.
system.cpu0.branchPred.BTBHitPct                  nan                       # BTB Hit Percentage
system.cpu0.branchPred.BTBHits                      0                       # Number of BTB hits
system.cpu0.branchPred.BTBLookups                   0                       # Number of BTB lookups
system.cpu0.branchPred.RASInCorrect                 0                       # Number of incorrect RAS predictions.
system.cpu0.branchPred.condIncorrect               43                       # Number of conditional branches incorrect
system.cpu0.branchPred.condPredicted               90                       # Number of conditional branches predicted
system.cpu0.branchPred.indirectHits                 0                       # Number of indirect target hits.
system.cpu0.branchPred.indirectLookups             24                       # Number of indirect predictor lookups.
system.cpu0.branchPred.indirectMisses              24                       # Number of indirect misses.
system.cpu0.branchPred.lookups                     90                       # Number of BP lookups
system.cpu0.branchPred.usedRAS                      0                       # Number of times the RAS was used to get a target.
system.cpu0.branchPredindirectMispredicted           15                       # Number of mispredicted indirect branches.
system.cpu0.committedInsts                   10000000                       # Number of instructions committed
system.cpu0.committedOps                     16927931                       # Number of ops (including micro ops) committed
system.cpu0.cpi                              2.831515                       # CPI: cycles per instruction
system.cpu0.discardedOps                      2872132                       # Number of ops (including micro ops) which were discarded before commit
system.cpu0.dtb.rdAccesses                    4157456                       # TLB accesses on read requests
system.cpu0.dtb.rdMisses                         2409                       # TLB misses on read requests
system.cpu0.dtb.wrAccesses                    2003200                       # TLB accesses on write requests
system.cpu0.dtb.wrMisses                         1711                       # TLB misses on write requests
system.cpu0.fetch2.amo_instructions                 0                       # Number of memory atomic instructions successfully decoded
system.cpu0.fetch2.fp_instructions                  0                       # Number of floating point instructions successfully decoded
system.cpu0.fetch2.int_instructions                 8                       # Number of integer instructions successfully decoded
system.cpu0.fetch2.load_instructions                0                       # Number of memory load instructions successfully decoded
system.cpu0.fetch2.store_instructions               0                       # Number of memory store instructions successfully decoded
system.cpu0.fetch2.vec_instructions                 0                       # Number of SIMD instructions successfully decoded
system.cpu0.idleCycles                        5386878                       # Total number of cycles that the object has spent stopped
system.cpu0.ipc                              0.353168                       # IPC: instructions per cycle
system.cpu0.itb.rdAccesses                          0                       # TLB accesses on read requests
system.cpu0.itb.rdMisses                            0                       # TLB misses on read requests
system.cpu0.itb.wrAccesses                    2443221                       # TLB accesses on write requests
system.cpu0.itb.wrMisses                          186                       # TLB misses on write requests
system.cpu0.numCycles                        28315149                       # number of cpu cycles simulated
system.cpu0.numFetchSuspends                        0                       # Number of times Execute suspended instruction fetching
system.cpu0.numWorkItemsCompleted                   0                       # number of work items this cpu completed
system.cpu0.numWorkItemsStarted                     0                       # number of work items this cpu started
system.cpu0.op_class_0::No_OpClass              31838      0.19%      0.19% # Class of committed instruction
system.cpu0.op_class_0::IntAlu               11081465     65.46%     65.65% # Class of committed instruction
system.cpu0.op_class_0::IntMult                    77      0.00%     65.65% # Class of committed instruction
system.cpu0.op_class_0::IntDiv                   1369      0.01%     65.66% # Class of committed instruction
system.cpu0.op_class_0::FloatAdd                  223      0.00%     65.66% # Class of committed instruction
system.cpu0.op_class_0::FloatCmp                    0      0.00%     65.66% # Class of committed instruction
system.cpu0.op_class_0::FloatCvt                  176      0.00%     65.66% # Class of committed instruction
system.cpu0.op_class_0::FloatMult                   0      0.00%     65.66% # Class of committed instruction
system.cpu0.op_class_0::FloatMultAcc                0      0.00%     65.66% # Class of committed instruction
system.cpu0.op_class_0::FloatDiv                    0      0.00%     65.66% # Class of committed instruction
system.cpu0.op_class_0::FloatMisc                   0      0.00%     65.66% # Class of committed instruction
system.cpu0.op_class_0::FloatSqrt                   0      0.00%     65.66% # Class of committed instruction
system.cpu0.op_class_0::SimdAdd                   952      0.01%     65.67% # Class of committed instruction
system.cpu0.op_class_0::SimdAddAcc                  0      0.00%     65.67% # Class of committed instruction
system.cpu0.op_class_0::SimdAlu                   988      0.01%     65.67% # Class of committed instruction
system.cpu0.op_class_0::SimdCmp                     0      0.00%     65.67% # Class of committed instruction
system.cpu0.op_class_0::SimdCvt                  1344      0.01%     65.68% # Class of committed instruction
system.cpu0.op_class_0::SimdMisc                  912      0.01%     65.69% # Class of committed instruction
system.cpu0.op_class_0::SimdMult                    0      0.00%     65.69% # Class of committed instruction
system.cpu0.op_class_0::SimdMultAcc                 0      0.00%     65.69% # Class of committed instruction
system.cpu0.op_class_0::SimdShift                 333      0.00%     65.69% # Class of committed instruction
system.cpu0.op_class_0::SimdShiftAcc                0      0.00%     65.69% # Class of committed instruction
system.cpu0.op_class_0::SimdDiv                     0      0.00%     65.69% # Class of committed instruction
system.cpu0.op_class_0::SimdSqrt                    0      0.00%     65.69% # Class of committed instruction
system.cpu0.op_class_0::SimdFloatAdd                0      0.00%     65.69% # Class of committed instruction
system.cpu0.op_class_0::SimdFloatAlu                0      0.00%     65.69% # Class of committed instruction
system.cpu0.op_class_0::SimdFloatCmp                0      0.00%     65.69% # Class of committed instruction
system.cpu0.op_class_0::SimdFloatCvt                0      0.00%     65.69% # Class of committed instruction
system.cpu0.op_class_0::SimdFloatDiv                0      0.00%     65.69% # Class of committed instruction
system.cpu0.op_class_0::SimdFloatMisc               0      0.00%     65.69% # Class of committed instruction
system.cpu0.op_class_0::SimdFloatMult               0      0.00%     65.69% # Class of committed instruction
system.cpu0.op_class_0::SimdFloatMultAcc            0      0.00%     65.69% # Class of committed instruction
system.cpu0.op_class_0::SimdFloatSqrt               0      0.00%     65.69% # Class of committed instruction
system.cpu0.op_class_0::SimdReduceAdd               0      0.00%     65.69% # Class of committed instruction
system.cpu0.op_class_0::SimdReduceAlu               0      0.00%     65.69% # Class of committed instruction
system.cpu0.op_class_0::SimdReduceCmp               0      0.00%     65.69% # Class of committed instruction
system.cpu0.op_class_0::SimdFloatReduceAdd            0      0.00%     65.69% # Class of committed instruction
system.cpu0.op_class_0::SimdFloatReduceCmp            0      0.00%     65.69% # Class of committed instruction
system.cpu0.op_class_0::SimdAes                     0      0.00%     65.69% # Class of committed instruction
system.cpu0.op_class_0::SimdAesMix                  0      0.00%     65.69% # Class of committed instruction
system.cpu0.op_class_0::SimdSha1Hash                0      0.00%     65.69% # Class of committed instruction
system.cpu0.op_class_0::SimdSha1Hash2               0      0.00%     65.69% # Class of committed instruction
system.cpu0.op_class_0::SimdSha256Hash              0      0.00%     65.69% # Class of committed instruction
system.cpu0.op_class_0::SimdSha256Hash2             0      0.00%     65.69% # Class of committed instruction
system.cpu0.op_class_0::SimdShaSigma2               0      0.00%     65.69% # Class of committed instruction
system.cpu0.op_class_0::SimdShaSigma3               0      0.00%     65.69% # Class of committed instruction
system.cpu0.op_class_0::SimdPredAlu                 0      0.00%     65.69% # Class of committed instruction
system.cpu0.op_class_0::MemRead               3833806     22.65%     88.34% # Class of committed instruction
system.cpu0.op_class_0::MemWrite              1911134     11.29%     99.63% # Class of committed instruction
system.cpu0.op_class_0::FloatMemRead            31918      0.19%     99.81% # Class of committed instruction
system.cpu0.op_class_0::FloatMemWrite           31396      0.19%    100.00% # Class of committed instruction
system.cpu0.op_class_0::IprAccess                   0      0.00%    100.00% # Class of committed instruction
system.cpu0.op_class_0::InstPrefetch                0      0.00%    100.00% # Class of committed instruction
system.cpu0.op_class_0::total                16927931                       # Class of committed instruction
system.cpu0.tickCycles                       22928271                       # Number of cycles that the object actually ticked
system.cpu0.workload.numSyscalls                   43                       # Number of system calls
system.cpu1.branchPred.BTBCorrect                   0                       # Number of correct BTB predictions (this stat may not work properly.
system.cpu1.branchPred.BTBHitPct                  nan                       # BTB Hit Percentage
system.cpu1.branchPred.BTBHits                      0                       # Number of BTB hits
system.cpu1.branchPred.BTBLookups                   0                       # Number of BTB lookups
system.cpu1.branchPred.RASInCorrect                 0                       # Number of incorrect RAS predictions.
system.cpu1.branchPred.condIncorrect               30                       # Number of conditional branches incorrect
system.cpu1.branchPred.condPredicted               68                       # Number of conditional branches predicted
system.cpu1.branchPred.indirectHits                 0                       # Number of indirect target hits.
system.cpu1.branchPred.indirectLookups             21                       # Number of indirect predictor lookups.
system.cpu1.branchPred.indirectMisses              21                       # Number of indirect misses.
system.cpu1.branchPred.lookups                     68                       # Number of BP lookups
system.cpu1.branchPred.usedRAS                      0                       # Number of times the RAS was used to get a target.
system.cpu1.branchPredindirectMispredicted           12                       # Number of mispredicted indirect branches.
system.cpu1.committedInsts                    1918575                       # Number of instructions committed
system.cpu1.committedOps                      3264945                       # Number of ops (including micro ops) committed
system.cpu1.cpi                             14.758325                       # CPI: cycles per instruction
system.cpu1.discardedOps                       917694                       # Number of ops (including micro ops) which were discarded before commit
system.cpu1.dtb.rdAccesses                     348906                       # TLB accesses on read requests
system.cpu1.dtb.rdMisses                         2018                       # TLB misses on read requests
system.cpu1.dtb.wrAccesses                    1249927                       # TLB accesses on write requests
system.cpu1.dtb.wrMisses                         4460                       # TLB misses on write requests
system.cpu1.fetch2.amo_instructions                 0                       # Number of memory atomic instructions successfully decoded
system.cpu1.fetch2.fp_instructions                  0                       # Number of floating point instructions successfully decoded
system.cpu1.fetch2.int_instructions                 8                       # Number of integer instructions successfully decoded
system.cpu1.fetch2.load_instructions                0                       # Number of memory load instructions successfully decoded
system.cpu1.fetch2.store_instructions               0                       # Number of memory store instructions successfully decoded
system.cpu1.fetch2.vec_instructions                 0                       # Number of SIMD instructions successfully decoded
system.cpu1.idleCycles                       23191482                       # Total number of cycles that the object has spent stopped
system.cpu1.ipc                              0.067758                       # IPC: instructions per cycle
system.cpu1.itb.rdAccesses                          0                       # TLB accesses on read requests
system.cpu1.itb.rdMisses                            0                       # TLB misses on read requests
system.cpu1.itb.wrAccesses                     631944                       # TLB accesses on write requests
system.cpu1.itb.wrMisses                          180                       # TLB misses on write requests
system.cpu1.numCycles                        28314953                       # number of cpu cycles simulated
system.cpu1.numFetchSuspends                        0                       # Number of times Execute suspended instruction fetching
system.cpu1.numWorkItemsCompleted                   0                       # number of work items this cpu completed
system.cpu1.numWorkItemsStarted                     0                       # number of work items this cpu started
system.cpu1.op_class_0::No_OpClass               2098      0.06%      0.06% # Class of committed instruction
system.cpu1.op_class_0::IntAlu                1807676     55.37%     55.43% # Class of committed instruction
system.cpu1.op_class_0::IntMult                   641      0.02%     55.45% # Class of committed instruction
system.cpu1.op_class_0::IntDiv                   1317      0.04%     55.49% # Class of committed instruction
system.cpu1.op_class_0::FloatAdd                  189      0.01%     55.50% # Class of committed instruction
system.cpu1.op_class_0::FloatCmp                    0      0.00%     55.50% # Class of committed instruction
system.cpu1.op_class_0::FloatCvt                   96      0.00%     55.50% # Class of committed instruction
system.cpu1.op_class_0::FloatMult                   0      0.00%     55.50% # Class of committed instruction
system.cpu1.op_class_0::FloatMultAcc                0      0.00%     55.50% # Class of committed instruction
system.cpu1.op_class_0::FloatDiv                    0      0.00%     55.50% # Class of committed instruction
system.cpu1.op_class_0::FloatMisc                   0      0.00%     55.50% # Class of committed instruction
system.cpu1.op_class_0::FloatSqrt                   0      0.00%     55.50% # Class of committed instruction
system.cpu1.op_class_0::SimdAdd                   916      0.03%     55.53% # Class of committed instruction
system.cpu1.op_class_0::SimdAddAcc                  0      0.00%     55.53% # Class of committed instruction
system.cpu1.op_class_0::SimdAlu                   943      0.03%     55.56% # Class of committed instruction
system.cpu1.op_class_0::SimdCmp                     0      0.00%     55.56% # Class of committed instruction
system.cpu1.op_class_0::SimdCvt                  1230      0.04%     55.59% # Class of committed instruction
system.cpu1.op_class_0::SimdMisc                  843      0.03%     55.62% # Class of committed instruction
system.cpu1.op_class_0::SimdMult                    0      0.00%     55.62% # Class of committed instruction
system.cpu1.op_class_0::SimdMultAcc                 0      0.00%     55.62% # Class of committed instruction
system.cpu1.op_class_0::SimdShift                 388      0.01%     55.63% # Class of committed instruction
system.cpu1.op_class_0::SimdShiftAcc                0      0.00%     55.63% # Class of committed instruction
system.cpu1.op_class_0::SimdDiv                     0      0.00%     55.63% # Class of committed instruction
system.cpu1.op_class_0::SimdSqrt                    0      0.00%     55.63% # Class of committed instruction
system.cpu1.op_class_0::SimdFloatAdd                0      0.00%     55.63% # Class of committed instruction
system.cpu1.op_class_0::SimdFloatAlu                0      0.00%     55.63% # Class of committed instruction
system.cpu1.op_class_0::SimdFloatCmp                0      0.00%     55.63% # Class of committed instruction
system.cpu1.op_class_0::SimdFloatCvt                0      0.00%     55.63% # Class of committed instruction
system.cpu1.op_class_0::SimdFloatDiv                0      0.00%     55.63% # Class of committed instruction
system.cpu1.op_class_0::SimdFloatMisc               0      0.00%     55.63% # Class of committed instruction
system.cpu1.op_class_0::SimdFloatMult               0      0.00%     55.63% # Class of committed instruction
system.cpu1.op_class_0::SimdFloatMultAcc            0      0.00%     55.63% # Class of committed instruction
system.cpu1.op_class_0::SimdFloatSqrt               0      0.00%     55.63% # Class of committed instruction
system.cpu1.op_class_0::SimdReduceAdd               0      0.00%     55.63% # Class of committed instruction
system.cpu1.op_class_0::SimdReduceAlu               0      0.00%     55.63% # Class of committed instruction
system.cpu1.op_class_0::SimdReduceCmp               0      0.00%     55.63% # Class of committed instruction
system.cpu1.op_class_0::SimdFloatReduceAdd            0      0.00%     55.63% # Class of committed instruction
system.cpu1.op_class_0::SimdFloatReduceCmp            0      0.00%     55.63% # Class of committed instruction
system.cpu1.op_class_0::SimdAes                     0      0.00%     55.63% # Class of committed instruction
system.cpu1.op_class_0::SimdAesMix                  0      0.00%     55.63% # Class of committed instruction
system.cpu1.op_class_0::SimdSha1Hash                0      0.00%     55.63% # Class of committed instruction
system.cpu1.op_class_0::SimdSha1Hash2               0      0.00%     55.63% # Class of committed instruction
system.cpu1.op_class_0::SimdSha256Hash              0      0.00%     55.63% # Class of committed instruction
system.cpu1.op_class_0::SimdSha256Hash2             0      0.00%     55.63% # Class of committed instruction
system.cpu1.op_class_0::SimdShaSigma2               0      0.00%     55.63% # Class of committed instruction
system.cpu1.op_class_0::SimdShaSigma3               0      0.00%     55.63% # Class of committed instruction
system.cpu1.op_class_0::SimdPredAlu                 0      0.00%     55.63% # Class of committed instruction
system.cpu1.op_class_0::MemRead                199681      6.12%     61.75% # Class of committed instruction
system.cpu1.op_class_0::MemWrite               133412      4.09%     65.83% # Class of committed instruction
system.cpu1.op_class_0::FloatMemRead             1610      0.05%     65.88% # Class of committed instruction
system.cpu1.op_class_0::FloatMemWrite         1113905     34.12%    100.00% # Class of committed instruction
system.cpu1.op_class_0::IprAccess                   0      0.00%    100.00% # Class of committed instruction
system.cpu1.op_class_0::InstPrefetch                0      0.00%    100.00% # Class of committed instruction
system.cpu1.op_class_0::total                 3264945                       # Class of committed instruction
system.cpu1.tickCycles                        5123471                       # Number of cycles that the object actually ticked
system.cpu1.workload.numSyscalls                   30                       # Number of system calls
system.membus.snoop_filter.hit_multi_requests            0                       # Number of requests hitting in the snoop filter with multiple (>1) holders of the requested data.
system.membus.snoop_filter.hit_multi_snoops            0                       # Number of snoops hitting in the snoop filter with multiple (>1) holders of the requested data.
system.membus.snoop_filter.hit_single_requests       164768                       # Number of requests hitting in the snoop filter with a single holder of the requested data.
system.membus.snoop_filter.hit_single_snoops            0                       # Number of snoops hitting in the snoop filter with a single holder of the requested data.
system.membus.snoop_filter.tot_requests        330578                       # Total number of requests made to the snoop filter.
system.membus.snoop_filter.tot_snoops               0                       # Total number of snoops made to the snoop filter.
system.tol2bus.snoop_filter.hit_multi_requests            1                       # Number of requests hitting in the snoop filter with multiple (>1) holders of the requested data.
system.tol2bus.snoop_filter.hit_multi_snoops            0                       # Number of snoops hitting in the snoop filter with multiple (>1) holders of the requested data.
system.tol2bus.snoop_filter.hit_single_requests       407371                       # Number of requests hitting in the snoop filter with a single holder of the requested data.
system.tol2bus.snoop_filter.hit_single_snoops          267                       # Number of snoops hitting in the snoop filter with a single holder of the requested data.
system.tol2bus.snoop_filter.tot_requests       814807                       # Total number of requests made to the snoop filter.
system.tol2bus.snoop_filter.tot_snoops            267                       # Total number of snoops made to the snoop filter.
system.membus.trans_dist::ReadResp              15729                       # Transaction distribution
system.membus.trans_dist::WritebackDirty       149772                       # Transaction distribution
system.membus.trans_dist::CleanEvict            14996                       # Transaction distribution
system.membus.trans_dist::ReadExReq            150081                       # Transaction distribution
system.membus.trans_dist::ReadExResp           150080                       # Transaction distribution
system.membus.trans_dist::ReadSharedReq         15729                       # Transaction distribution
system.membus.pkt_count_system.l2.mem_side::system.mem_ctrls.port       496387                       # Packet count per connected master and slave (bytes)
system.membus.pkt_count_system.l2.mem_side::total       496387                       # Packet count per connected master and slave (bytes)
system.membus.pkt_count::total                 496387                       # Packet count per connected master and slave (bytes)
system.membus.pkt_size_system.l2.mem_side::system.mem_ctrls.port     20197184                       # Cumulative packet size per connected master and slave (bytes)
system.membus.pkt_size_system.l2.mem_side::total     20197184                       # Cumulative packet size per connected master and slave (bytes)
system.membus.pkt_size::total                20197184                       # Cumulative packet size per connected master and slave (bytes)
system.membus.snoops                                0                       # Total snoops (count)
system.membus.snoopTraffic                          0                       # Total snoop traffic (bytes)
system.membus.snoop_fanout::samples            165810                       # Request fanout histogram
system.membus.snoop_fanout::mean                    0                       # Request fanout histogram
system.membus.snoop_fanout::stdev                   0                       # Request fanout histogram
system.membus.snoop_fanout::underflows              0      0.00%      0.00% # Request fanout histogram
system.membus.snoop_fanout::0                  165810    100.00%    100.00% # Request fanout histogram
system.membus.snoop_fanout::1                       0      0.00%    100.00% # Request fanout histogram
system.membus.snoop_fanout::overflows               0      0.00%    100.00% # Request fanout histogram
system.membus.snoop_fanout::min_value               0                       # Request fanout histogram
system.membus.snoop_fanout::max_value               0                       # Request fanout histogram
system.membus.snoop_fanout::total              165810                       # Request fanout histogram
system.membus.reqLayer4.occupancy          1002904500                       # Layer occupancy (ticks)
system.membus.reqLayer4.utilization               7.1                       # Layer utilization (%)
system.membus.respLayer1.occupancy          875779500                       # Layer occupancy (ticks)
system.membus.respLayer1.utilization              6.2                       # Layer utilization (%)
system.membus.power_state.pwrStateResidencyTicks::UNDEFINED  14157574500                       # Cumulative time (in ticks) in various power states
system.voltage_domain.voltage                       1                       # Voltage in Volts
system.clk_domain.clock                          1000                       # Clock period in ticks
system.cpu0.icache.demand_hits::.cpu0.inst      2429336                       # number of demand (read+write) hits
system.cpu0.icache.demand_hits::total         2429336                       # number of demand (read+write) hits
system.cpu0.icache.overall_hits::.cpu0.inst      2429336                       # number of overall hits
system.cpu0.icache.overall_hits::total        2429336                       # number of overall hits
system.cpu0.icache.demand_misses::.cpu0.inst        13838                       # number of demand (read+write) misses
system.cpu0.icache.demand_misses::total         13838                       # number of demand (read+write) misses
system.cpu0.icache.overall_misses::.cpu0.inst        13838                       # number of overall misses
system.cpu0.icache.overall_misses::total        13838                       # number of overall misses
system.cpu0.icache.demand_miss_latency::.cpu0.inst    416453000                       # number of demand (read+write) miss cycles
system.cpu0.icache.demand_miss_latency::total    416453000                       # number of demand (read+write) miss cycles
system.cpu0.icache.overall_miss_latency::.cpu0.inst    416453000                       # number of overall miss cycles
system.cpu0.icache.overall_miss_latency::total    416453000                       # number of overall miss cycles
system.cpu0.icache.demand_accesses::.cpu0.inst      2443174                       # number of demand (read+write) accesses
system.cpu0.icache.demand_accesses::total      2443174                       # number of demand (read+write) accesses
system.cpu0.icache.overall_accesses::.cpu0.inst      2443174                       # number of overall (read+write) accesses
system.cpu0.icache.overall_accesses::total      2443174                       # number of overall (read+write) accesses
system.cpu0.icache.demand_miss_rate::.cpu0.inst     0.005664                       # miss rate for demand accesses
system.cpu0.icache.demand_miss_rate::total     0.005664                       # miss rate for demand accesses
system.cpu0.icache.overall_miss_rate::.cpu0.inst     0.005664                       # miss rate for overall accesses
system.cpu0.icache.overall_miss_rate::total     0.005664                       # miss rate for overall accesses
system.cpu0.icache.demand_avg_miss_latency::.cpu0.inst 30094.883654                       # average overall miss latency
system.cpu0.icache.demand_avg_miss_latency::total 30094.883654                       # average overall miss latency
system.cpu0.icache.overall_avg_miss_latency::.cpu0.inst 30094.883654                       # average overall miss latency
system.cpu0.icache.overall_avg_miss_latency::total 30094.883654                       # average overall miss latency
system.cpu0.icache.blocked_cycles::no_mshrs            0                       # number of cycles access was blocked
system.cpu0.icache.blocked_cycles::no_targets            0                       # number of cycles access was blocked
system.cpu0.icache.blocked::no_mshrs                0                       # number of cycles access was blocked
system.cpu0.icache.blocked::no_targets              0                       # number of cycles access was blocked
system.cpu0.icache.avg_blocked_cycles::no_mshrs          nan                       # average number of cycles each access was blocked
system.cpu0.icache.avg_blocked_cycles::no_targets          nan                       # average number of cycles each access was blocked
system.cpu0.icache.writebacks::.writebacks        13822                       # number of writebacks
system.cpu0.icache.writebacks::total            13822                       # number of writebacks
system.cpu0.icache.demand_mshr_misses::.cpu0.inst        13838                       # number of demand (read+write) MSHR misses
system.cpu0.icache.demand_mshr_misses::total        13838                       # number of demand (read+write) MSHR misses
system.cpu0.icache.overall_mshr_misses::.cpu0.inst        13838                       # number of overall MSHR misses
system.cpu0.icache.overall_mshr_misses::total        13838                       # number of overall MSHR misses
system.cpu0.icache.demand_mshr_miss_latency::.cpu0.inst    402615000                       # number of demand (read+write) MSHR miss cycles
system.cpu0.icache.demand_mshr_miss_latency::total    402615000                       # number of demand (read+write) MSHR miss cycles
system.cpu0.icache.overall_mshr_miss_latency::.cpu0.inst    402615000                       # number of overall MSHR miss cycles
system.cpu0.icache.overall_mshr_miss_latency::total    402615000                       # number of overall MSHR miss cycles
system.cpu0.icache.demand_mshr_miss_rate::.cpu0.inst     0.005664                       # mshr miss rate for demand accesses
system.cpu0.icache.demand_mshr_miss_rate::total     0.005664                       # mshr miss rate for demand accesses
system.cpu0.icache.overall_mshr_miss_rate::.cpu0.inst     0.005664                       # mshr miss rate for overall accesses
system.cpu0.icache.overall_mshr_miss_rate::total     0.005664                       # mshr miss rate for overall accesses
system.cpu0.icache.demand_avg_mshr_miss_latency::.cpu0.inst 29094.883654                       # average overall mshr miss latency
system.cpu0.icache.demand_avg_mshr_miss_latency::total 29094.883654                       # average overall mshr miss latency
system.cpu0.icache.overall_avg_mshr_miss_latency::.cpu0.inst 29094.883654                       # average overall mshr miss latency
system.cpu0.icache.overall_avg_mshr_miss_latency::total 29094.883654                       # average overall mshr miss latency
system.cpu0.icache.replacements                 13822                       # number of replacements
system.cpu0.icache.ReadReq_hits::.cpu0.inst      2429336                       # number of ReadReq hits
system.cpu0.icache.ReadReq_hits::total        2429336                       # number of ReadReq hits
system.cpu0.icache.ReadReq_misses::.cpu0.inst        13838                       # number of ReadReq misses
system.cpu0.icache.ReadReq_misses::total        13838                       # number of ReadReq misses
system.cpu0.icache.ReadReq_miss_latency::.cpu0.inst    416453000                       # number of ReadReq miss cycles
system.cpu0.icache.ReadReq_miss_latency::total    416453000                       # number of ReadReq miss cycles
system.cpu0.icache.ReadReq_accesses::.cpu0.inst      2443174                       # number of ReadReq accesses(hits+misses)
system.cpu0.icache.ReadReq_accesses::total      2443174                       # number of ReadReq accesses(hits+misses)
system.cpu0.icache.ReadReq_miss_rate::.cpu0.inst     0.005664                       # miss rate for ReadReq accesses
system.cpu0.icache.ReadReq_miss_rate::total     0.005664                       # miss rate for ReadReq accesses
system.cpu0.icache.ReadReq_avg_miss_latency::.cpu0.inst 30094.883654                       # average ReadReq miss latency
system.cpu0.icache.ReadReq_avg_miss_latency::total 30094.883654                       # average ReadReq miss latency
system.cpu0.icache.ReadReq_mshr_misses::.cpu0.inst        13838                       # number of ReadReq MSHR misses
system.cpu0.icache.ReadReq_mshr_misses::total        13838                       # number of ReadReq MSHR misses
system.cpu0.icache.ReadReq_mshr_miss_latency::.cpu0.inst    402615000                       # number of ReadReq MSHR miss cycles
system.cpu0.icache.ReadReq_mshr_miss_latency::total    402615000                       # number of ReadReq MSHR miss cycles
system.cpu0.icache.ReadReq_mshr_miss_rate::.cpu0.inst     0.005664                       # mshr miss rate for ReadReq accesses
system.cpu0.icache.ReadReq_mshr_miss_rate::total     0.005664                       # mshr miss rate for ReadReq accesses
system.cpu0.icache.ReadReq_avg_mshr_miss_latency::.cpu0.inst 29094.883654                       # average ReadReq mshr miss latency
system.cpu0.icache.ReadReq_avg_mshr_miss_latency::total 29094.883654                       # average ReadReq mshr miss latency
system.cpu0.icache.power_state.pwrStateResidencyTicks::UNDEFINED  14157574500                       # Cumulative time (in ticks) in various power states
system.cpu0.icache.tags.tagsinuse           15.999042                       # Cycle average of tags in use
system.cpu0.icache.tags.total_refs            2443174                       # Total number of references to valid blocks.
system.cpu0.icache.tags.sampled_refs            13838                       # Sample count of references to valid blocks.
system.cpu0.icache.tags.avg_refs           176.555427                       # Average number of references to valid blocks.
system.cpu0.icache.tags.warmup_cycle            87500                       # Cycle when the warmup percentage was hit.
system.cpu0.icache.tags.occ_blocks::.cpu0.inst    15.999042                       # Average occupied blocks per requestor
system.cpu0.icache.tags.occ_percent::.cpu0.inst     0.999940                       # Average percentage of cache occupancy
system.cpu0.icache.tags.occ_percent::total     0.999940                       # Average percentage of cache occupancy
system.cpu0.icache.tags.occ_task_id_blocks::1024           16                       # Occupied blocks per task id
system.cpu0.icache.tags.age_task_id_blocks_1024::1           16                       # Occupied blocks per task id
system.cpu0.icache.tags.occ_task_id_percent::1024            1                       # Percentage of cache occupancy per task id
system.cpu0.icache.tags.tag_accesses         19559230                       # Number of tag accesses
system.cpu0.icache.tags.data_accesses        19559230                       # Number of data accesses
system.cpu0.icache.tags.power_state.pwrStateResidencyTicks::UNDEFINED  14157574500                       # Cumulative time (in ticks) in various power states
system.cpu0.dtb.walker.power_state.pwrStateResidencyTicks::UNDEFINED  14157574500                       # Cumulative time (in ticks) in various power states
system.cpu0.interrupts.clk_domain.clock          8000                       # Clock period in ticks
system.cpu0.itb_walker_cache.blocked_cycles::no_mshrs            0                       # number of cycles access was blocked
system.cpu0.itb_walker_cache.blocked_cycles::no_targets            0                       # number of cycles access was blocked
system.cpu0.itb_walker_cache.blocked::no_mshrs            0                       # number of cycles access was blocked
system.cpu0.itb_walker_cache.blocked::no_targets            0                       # number of cycles access was blocked
system.cpu0.itb_walker_cache.avg_blocked_cycles::no_mshrs          nan                       # average number of cycles each access was blocked
system.cpu0.itb_walker_cache.avg_blocked_cycles::no_targets          nan                       # average number of cycles each access was blocked
system.cpu0.itb_walker_cache.replacements            0                       # number of replacements
system.cpu0.itb_walker_cache.power_state.pwrStateResidencyTicks::UNDEFINED  14157574500                       # Cumulative time (in ticks) in various power states
system.cpu0.itb_walker_cache.tags.tagsinuse            0                       # Cycle average of tags in use
system.cpu0.itb_walker_cache.tags.total_refs            0                       # Total number of references to valid blocks.
system.cpu0.itb_walker_cache.tags.sampled_refs            0                       # Sample count of references to valid blocks.
system.cpu0.itb_walker_cache.tags.avg_refs          nan                       # Average number of references to valid blocks.
system.cpu0.itb_walker_cache.tags.warmup_cycle            0                       # Cycle when the warmup percentage was hit.
system.cpu0.itb_walker_cache.tags.tag_accesses            0                       # Number of tag accesses
system.cpu0.itb_walker_cache.tags.data_accesses            0                       # Number of data accesses
system.cpu0.itb_walker_cache.tags.power_state.pwrStateResidencyTicks::UNDEFINED  14157574500                       # Cumulative time (in ticks) in various power states
system.cpu0.dtb_walker_cache.blocked_cycles::no_mshrs            0                       # number of cycles access was blocked
system.cpu0.dtb_walker_cache.blocked_cycles::no_targets            0                       # number of cycles access was blocked
system.cpu0.dtb_walker_cache.blocked::no_mshrs            0                       # number of cycles access was blocked
system.cpu0.dtb_walker_cache.blocked::no_targets            0                       # number of cycles access was blocked
system.cpu0.dtb_walker_cache.avg_blocked_cycles::no_mshrs          nan                       # average number of cycles each access was blocked
system.cpu0.dtb_walker_cache.avg_blocked_cycles::no_targets          nan                       # average number of cycles each access was blocked
system.cpu0.dtb_walker_cache.replacements            0                       # number of replacements
system.cpu0.dtb_walker_cache.power_state.pwrStateResidencyTicks::UNDEFINED  14157574500                       # Cumulative time (in ticks) in various power states
system.cpu0.dtb_walker_cache.tags.tagsinuse            0                       # Cycle average of tags in use
system.cpu0.dtb_walker_cache.tags.total_refs            0                       # Total number of references to valid blocks.
system.cpu0.dtb_walker_cache.tags.sampled_refs            0                       # Sample count of references to valid blocks.
system.cpu0.dtb_walker_cache.tags.avg_refs          nan                       # Average number of references to valid blocks.
system.cpu0.dtb_walker_cache.tags.warmup_cycle            0                       # Cycle when the warmup percentage was hit.
system.cpu0.dtb_walker_cache.tags.tag_accesses            0                       # Number of tag accesses
system.cpu0.dtb_walker_cache.tags.data_accesses            0                       # Number of data accesses
system.cpu0.dtb_walker_cache.tags.power_state.pwrStateResidencyTicks::UNDEFINED  14157574500                       # Cumulative time (in ticks) in various power states
system.cpu0.dcache.demand_hits::.cpu0.data      5861380                       # number of demand (read+write) hits
system.cpu0.dcache.demand_hits::total         5861380                       # number of demand (read+write) hits
system.cpu0.dcache.overall_hits::.cpu0.data      5862150                       # number of overall hits
system.cpu0.dcache.overall_hits::total        5862150                       # number of overall hits
system.cpu0.dcache.demand_misses::.cpu0.data       226567                       # number of demand (read+write) misses
system.cpu0.dcache.demand_misses::total        226567                       # number of demand (read+write) misses
system.cpu0.dcache.overall_misses::.cpu0.data       233188                       # number of overall misses
system.cpu0.dcache.overall_misses::total       233188                       # number of overall misses
system.cpu0.dcache.demand_miss_latency::.cpu0.data   4190205987                       # number of demand (read+write) miss cycles
system.cpu0.dcache.demand_miss_latency::total   4190205987                       # number of demand (read+write) miss cycles
system.cpu0.dcache.overall_miss_latency::.cpu0.data   4190205987                       # number of overall miss cycles
system.cpu0.dcache.overall_miss_latency::total   4190205987                       # number of overall miss cycles
system.cpu0.dcache.demand_accesses::.cpu0.data      6087947                       # number of demand (read+write) accesses
system.cpu0.dcache.demand_accesses::total      6087947                       # number of demand (read+write) accesses
system.cpu0.dcache.overall_accesses::.cpu0.data      6095338                       # number of overall (read+write) accesses
system.cpu0.dcache.overall_accesses::total      6095338                       # number of overall (read+write) accesses
system.cpu0.dcache.demand_miss_rate::.cpu0.data     0.037216                       # miss rate for demand accesses
system.cpu0.dcache.demand_miss_rate::total     0.037216                       # miss rate for demand accesses
system.cpu0.dcache.overall_miss_rate::.cpu0.data     0.038257                       # miss rate for overall accesses
system.cpu0.dcache.overall_miss_rate::total     0.038257                       # miss rate for overall accesses
system.cpu0.dcache.demand_avg_miss_latency::.cpu0.data 18494.334952                       # average overall miss latency
system.cpu0.dcache.demand_avg_miss_latency::total 18494.334952                       # average overall miss latency
system.cpu0.dcache.overall_avg_miss_latency::.cpu0.data 17969.217914                       # average overall miss latency
system.cpu0.dcache.overall_avg_miss_latency::total 17969.217914                       # average overall miss latency
system.cpu0.dcache.blocked_cycles::no_mshrs         2759                       # number of cycles access was blocked
system.cpu0.dcache.blocked_cycles::no_targets            0                       # number of cycles access was blocked
system.cpu0.dcache.blocked::no_mshrs               59                       # number of cycles access was blocked
system.cpu0.dcache.blocked::no_targets              0                       # number of cycles access was blocked
system.cpu0.dcache.avg_blocked_cycles::no_mshrs    46.762712                       # average number of cycles each access was blocked
system.cpu0.dcache.avg_blocked_cycles::no_targets          nan                       # average number of cycles each access was blocked
system.cpu0.dcache.writebacks::.writebacks        60334                       # number of writebacks
system.cpu0.dcache.writebacks::total            60334                       # number of writebacks
system.cpu0.dcache.demand_mshr_hits::.cpu0.data         8937                       # number of demand (read+write) MSHR hits
system.cpu0.dcache.demand_mshr_hits::total         8937                       # number of demand (read+write) MSHR hits
system.cpu0.dcache.overall_mshr_hits::.cpu0.data         8937                       # number of overall MSHR hits
system.cpu0.dcache.overall_mshr_hits::total         8937                       # number of overall MSHR hits
system.cpu0.dcache.demand_mshr_misses::.cpu0.data       217630                       # number of demand (read+write) MSHR misses
system.cpu0.dcache.demand_mshr_misses::total       217630                       # number of demand (read+write) MSHR misses
system.cpu0.dcache.overall_mshr_misses::.cpu0.data       221373                       # number of overall MSHR misses
system.cpu0.dcache.overall_mshr_misses::total       221373                       # number of overall MSHR misses
system.cpu0.dcache.demand_mshr_miss_latency::.cpu0.data   3703136000                       # number of demand (read+write) MSHR miss cycles
system.cpu0.dcache.demand_mshr_miss_latency::total   3703136000                       # number of demand (read+write) MSHR miss cycles
system.cpu0.dcache.overall_mshr_miss_latency::.cpu0.data   4015132000                       # number of overall MSHR miss cycles
system.cpu0.dcache.overall_mshr_miss_latency::total   4015132000                       # number of overall MSHR miss cycles
system.cpu0.dcache.demand_mshr_miss_rate::.cpu0.data     0.035748                       # mshr miss rate for demand accesses
system.cpu0.dcache.demand_mshr_miss_rate::total     0.035748                       # mshr miss rate for demand accesses
system.cpu0.dcache.overall_mshr_miss_rate::.cpu0.data     0.036318                       # mshr miss rate for overall accesses
system.cpu0.dcache.overall_mshr_miss_rate::total     0.036318                       # mshr miss rate for overall accesses
system.cpu0.dcache.demand_avg_mshr_miss_latency::.cpu0.data 17015.742315                       # average overall mshr miss latency
system.cpu0.dcache.demand_avg_mshr_miss_latency::total 17015.742315                       # average overall mshr miss latency
system.cpu0.dcache.overall_avg_mshr_miss_latency::.cpu0.data 18137.406097                       # average overall mshr miss latency
system.cpu0.dcache.overall_avg_mshr_miss_latency::total 18137.406097                       # average overall mshr miss latency
system.cpu0.dcache.replacements                221357                       # number of replacements
system.cpu0.dcache.ReadReq_hits::.cpu0.data      3983122                       # number of ReadReq hits
system.cpu0.dcache.ReadReq_hits::total        3983122                       # number of ReadReq hits
system.cpu0.dcache.ReadReq_misses::.cpu0.data       163136                       # number of ReadReq misses
system.cpu0.dcache.ReadReq_misses::total       163136                       # number of ReadReq misses
system.cpu0.dcache.ReadReq_miss_latency::.cpu0.data   2484422500                       # number of ReadReq miss cycles
system.cpu0.dcache.ReadReq_miss_latency::total   2484422500                       # number of ReadReq miss cycles
system.cpu0.dcache.ReadReq_accesses::.cpu0.data      4146258                       # number of ReadReq accesses(hits+misses)
system.cpu0.dcache.ReadReq_accesses::total      4146258                       # number of ReadReq accesses(hits+misses)
system.cpu0.dcache.ReadReq_miss_rate::.cpu0.data     0.039345                       # miss rate for ReadReq accesses
system.cpu0.dcache.ReadReq_miss_rate::total     0.039345                       # miss rate for ReadReq accesses
system.cpu0.dcache.ReadReq_avg_miss_latency::.cpu0.data 15229.149299                       # average ReadReq miss latency
system.cpu0.dcache.ReadReq_avg_miss_latency::total 15229.149299                       # average ReadReq miss latency
system.cpu0.dcache.ReadReq_mshr_hits::.cpu0.data          506                       # number of ReadReq MSHR hits
system.cpu0.dcache.ReadReq_mshr_hits::total          506                       # number of ReadReq MSHR hits
system.cpu0.dcache.ReadReq_mshr_misses::.cpu0.data       162630                       # number of ReadReq MSHR misses
system.cpu0.dcache.ReadReq_mshr_misses::total       162630                       # number of ReadReq MSHR misses
system.cpu0.dcache.ReadReq_mshr_miss_latency::.cpu0.data   2296108500                       # number of ReadReq MSHR miss cycles
system.cpu0.dcache.ReadReq_mshr_miss_latency::total   2296108500                       # number of ReadReq MSHR miss cycles
system.cpu0.dcache.ReadReq_mshr_miss_rate::.cpu0.data     0.039223                       # mshr miss rate for ReadReq accesses
system.cpu0.dcache.ReadReq_mshr_miss_rate::total     0.039223                       # mshr miss rate for ReadReq accesses
system.cpu0.dcache.ReadReq_avg_mshr_miss_latency::.cpu0.data 14118.603579                       # average ReadReq mshr miss latency
system.cpu0.dcache.ReadReq_avg_mshr_miss_latency::total 14118.603579                       # average ReadReq mshr miss latency
system.cpu0.dcache.WriteReq_hits::.cpu0.data      1878258                       # number of WriteReq hits
system.cpu0.dcache.WriteReq_hits::total       1878258                       # number of WriteReq hits
system.cpu0.dcache.WriteReq_misses::.cpu0.data        63431                       # number of WriteReq misses
system.cpu0.dcache.WriteReq_misses::total        63431                       # number of WriteReq misses
system.cpu0.dcache.WriteReq_miss_latency::.cpu0.data   1705783487                       # number of WriteReq miss cycles
system.cpu0.dcache.WriteReq_miss_latency::total   1705783487                       # number of WriteReq miss cycles
system.cpu0.dcache.WriteReq_accesses::.cpu0.data      1941689                       # number of WriteReq accesses(hits+misses)
system.cpu0.dcache.WriteReq_accesses::total      1941689                       # number of WriteReq accesses(hits+misses)
system.cpu0.dcache.WriteReq_miss_rate::.cpu0.data     0.032668                       # miss rate for WriteReq accesses
system.cpu0.dcache.WriteReq_miss_rate::total     0.032668                       # miss rate for WriteReq accesses
system.cpu0.dcache.WriteReq_avg_miss_latency::.cpu0.data 26891.953256                       # average WriteReq miss latency
system.cpu0.dcache.WriteReq_avg_miss_latency::total 26891.953256                       # average WriteReq miss latency
system.cpu0.dcache.WriteReq_mshr_hits::.cpu0.data         8431                       # number of WriteReq MSHR hits
system.cpu0.dcache.WriteReq_mshr_hits::total         8431                       # number of WriteReq MSHR hits
system.cpu0.dcache.WriteReq_mshr_misses::.cpu0.data        55000                       # number of WriteReq MSHR misses
system.cpu0.dcache.WriteReq_mshr_misses::total        55000                       # number of WriteReq MSHR misses
system.cpu0.dcache.WriteReq_mshr_miss_latency::.cpu0.data   1407027500                       # number of WriteReq MSHR miss cycles
system.cpu0.dcache.WriteReq_mshr_miss_latency::total   1407027500                       # number of WriteReq MSHR miss cycles
system.cpu0.dcache.WriteReq_mshr_miss_rate::.cpu0.data     0.028326                       # mshr miss rate for WriteReq accesses
system.cpu0.dcache.WriteReq_mshr_miss_rate::total     0.028326                       # mshr miss rate for WriteReq accesses
system.cpu0.dcache.WriteReq_avg_mshr_miss_latency::.cpu0.data 25582.318182                       # average WriteReq mshr miss latency
system.cpu0.dcache.WriteReq_avg_mshr_miss_latency::total 25582.318182                       # average WriteReq mshr miss latency
system.cpu0.dcache.SoftPFReq_hits::.cpu0.data          770                       # number of SoftPFReq hits
system.cpu0.dcache.SoftPFReq_hits::total          770                       # number of SoftPFReq hits
system.cpu0.dcache.SoftPFReq_misses::.cpu0.data         6621                       # number of SoftPFReq misses
system.cpu0.dcache.SoftPFReq_misses::total         6621                       # number of SoftPFReq misses
system.cpu0.dcache.SoftPFReq_accesses::.cpu0.data         7391                       # number of SoftPFReq accesses(hits+misses)
system.cpu0.dcache.SoftPFReq_accesses::total         7391                       # number of SoftPFReq accesses(hits+misses)
system.cpu0.dcache.SoftPFReq_miss_rate::.cpu0.data     0.895819                       # miss rate for SoftPFReq accesses
system.cpu0.dcache.SoftPFReq_miss_rate::total     0.895819                       # miss rate for SoftPFReq accesses
system.cpu0.dcache.SoftPFReq_mshr_misses::.cpu0.data         3743                       # number of SoftPFReq MSHR misses
system.cpu0.dcache.SoftPFReq_mshr_misses::total         3743                       # number of SoftPFReq MSHR misses
system.cpu0.dcache.SoftPFReq_mshr_miss_latency::.cpu0.data    311996000                       # number of SoftPFReq MSHR miss cycles
system.cpu0.dcache.SoftPFReq_mshr_miss_latency::total    311996000                       # number of SoftPFReq MSHR miss cycles
system.cpu0.dcache.SoftPFReq_mshr_miss_rate::.cpu0.data     0.506427                       # mshr miss rate for SoftPFReq accesses
system.cpu0.dcache.SoftPFReq_mshr_miss_rate::total     0.506427                       # mshr miss rate for SoftPFReq accesses
system.cpu0.dcache.SoftPFReq_avg_mshr_miss_latency::.cpu0.data 83354.528453                       # average SoftPFReq mshr miss latency
system.cpu0.dcache.SoftPFReq_avg_mshr_miss_latency::total 83354.528453                       # average SoftPFReq mshr miss latency
system.cpu0.dcache.power_state.pwrStateResidencyTicks::UNDEFINED  14157574500                       # Cumulative time (in ticks) in various power states
system.cpu0.dcache.tags.tagsinuse           15.998959                       # Cycle average of tags in use
system.cpu0.dcache.tags.total_refs            6083523                       # Total number of references to valid blocks.
system.cpu0.dcache.tags.sampled_refs           221373                       # Sample count of references to valid blocks.
system.cpu0.dcache.tags.avg_refs            27.480872                       # Average number of references to valid blocks.
system.cpu0.dcache.tags.warmup_cycle           178500                       # Cycle when the warmup percentage was hit.
system.cpu0.dcache.tags.occ_blocks::.cpu0.data    15.998959                       # Average occupied blocks per requestor
system.cpu0.dcache.tags.occ_percent::.cpu0.data     0.999935                       # Average percentage of cache occupancy
system.cpu0.dcache.tags.occ_percent::total     0.999935                       # Average percentage of cache occupancy
system.cpu0.dcache.tags.occ_task_id_blocks::1024           16                       # Occupied blocks per task id
system.cpu0.dcache.tags.age_task_id_blocks_1024::0           12                       # Occupied blocks per task id
system.cpu0.dcache.tags.age_task_id_blocks_1024::1            4                       # Occupied blocks per task id
system.cpu0.dcache.tags.occ_task_id_percent::1024            1                       # Percentage of cache occupancy per task id
system.cpu0.dcache.tags.tag_accesses         48984077                       # Number of tag accesses
system.cpu0.dcache.tags.data_accesses        48984077                       # Number of data accesses
system.cpu0.dcache.tags.power_state.pwrStateResidencyTicks::UNDEFINED  14157574500                       # Cumulative time (in ticks) in various power states
system.cpu0.power_state.pwrStateResidencyTicks::ON  14157574500                       # Cumulative time (in ticks) in various power states
system.cpu0.itb.walker.power_state.pwrStateResidencyTicks::UNDEFINED  14157574500                       # Cumulative time (in ticks) in various power states
system.cpu1.icache.demand_hits::.cpu1.inst       623019                       # number of demand (read+write) hits
system.cpu1.icache.demand_hits::total          623019                       # number of demand (read+write) hits
system.cpu1.icache.overall_hits::.cpu1.inst       623019                       # number of overall hits
system.cpu1.icache.overall_hits::total         623019                       # number of overall hits
system.cpu1.icache.demand_misses::.cpu1.inst         8882                       # number of demand (read+write) misses
system.cpu1.icache.demand_misses::total          8882                       # number of demand (read+write) misses
system.cpu1.icache.overall_misses::.cpu1.inst         8882                       # number of overall misses
system.cpu1.icache.overall_misses::total         8882                       # number of overall misses
system.cpu1.icache.demand_miss_latency::.cpu1.inst    229534000                       # number of demand (read+write) miss cycles
system.cpu1.icache.demand_miss_latency::total    229534000                       # number of demand (read+write) miss cycles
system.cpu1.icache.overall_miss_latency::.cpu1.inst    229534000                       # number of overall miss cycles
system.cpu1.icache.overall_miss_latency::total    229534000                       # number of overall miss cycles
system.cpu1.icache.demand_accesses::.cpu1.inst       631901                       # number of demand (read+write) accesses
system.cpu1.icache.demand_accesses::total       631901                       # number of demand (read+write) accesses
system.cpu1.icache.overall_accesses::.cpu1.inst       631901                       # number of overall (read+write) accesses
system.cpu1.icache.overall_accesses::total       631901                       # number of overall (read+write) accesses
system.cpu1.icache.demand_miss_rate::.cpu1.inst     0.014056                       # miss rate for demand accesses
system.cpu1.icache.demand_miss_rate::total     0.014056                       # miss rate for demand accesses
system.cpu1.icache.overall_miss_rate::.cpu1.inst     0.014056                       # miss rate for overall accesses
system.cpu1.icache.overall_miss_rate::total     0.014056                       # miss rate for overall accesses
system.cpu1.icache.demand_avg_miss_latency::.cpu1.inst 25842.603017                       # average overall miss latency
system.cpu1.icache.demand_avg_miss_latency::total 25842.603017                       # average overall miss latency
system.cpu1.icache.overall_avg_miss_latency::.cpu1.inst 25842.603017                       # average overall miss latency
system.cpu1.icache.overall_avg_miss_latency::total 25842.603017                       # average overall miss latency
system.cpu1.icache.blocked_cycles::no_mshrs            0                       # number of cycles access was blocked
system.cpu1.icache.blocked_cycles::no_targets            0                       # number of cycles access was blocked
system.cpu1.icache.blocked::no_mshrs                0                       # number of cycles access was blocked
system.cpu1.icache.blocked::no_targets              0                       # number of cycles access was blocked
system.cpu1.icache.avg_blocked_cycles::no_mshrs          nan                       # average number of cycles each access was blocked
system.cpu1.icache.avg_blocked_cycles::no_targets          nan                       # average number of cycles each access was blocked
system.cpu1.icache.writebacks::.writebacks         8866                       # number of writebacks
system.cpu1.icache.writebacks::total             8866                       # number of writebacks
system.cpu1.icache.demand_mshr_misses::.cpu1.inst         8882                       # number of demand (read+write) MSHR misses
system.cpu1.icache.demand_mshr_misses::total         8882                       # number of demand (read+write) MSHR misses
system.cpu1.icache.overall_mshr_misses::.cpu1.inst         8882                       # number of overall MSHR misses
system.cpu1.icache.overall_mshr_misses::total         8882                       # number of overall MSHR misses
system.cpu1.icache.demand_mshr_miss_latency::.cpu1.inst    220652000                       # number of demand (read+write) MSHR miss cycles
system.cpu1.icache.demand_mshr_miss_latency::total    220652000                       # number of demand (read+write) MSHR miss cycles
system.cpu1.icache.overall_mshr_miss_latency::.cpu1.inst    220652000                       # number of overall MSHR miss cycles
system.cpu1.icache.overall_mshr_miss_latency::total    220652000                       # number of overall MSHR miss cycles
system.cpu1.icache.demand_mshr_miss_rate::.cpu1.inst     0.014056                       # mshr miss rate for demand accesses
system.cpu1.icache.demand_mshr_miss_rate::total     0.014056                       # mshr miss rate for demand accesses
system.cpu1.icache.overall_mshr_miss_rate::.cpu1.inst     0.014056                       # mshr miss rate for overall accesses
system.cpu1.icache.overall_mshr_miss_rate::total     0.014056                       # mshr miss rate for overall accesses
system.cpu1.icache.demand_avg_mshr_miss_latency::.cpu1.inst 24842.603017                       # average overall mshr miss latency
system.cpu1.icache.demand_avg_mshr_miss_latency::total 24842.603017                       # average overall mshr miss latency
system.cpu1.icache.overall_avg_mshr_miss_latency::.cpu1.inst 24842.603017                       # average overall mshr miss latency
system.cpu1.icache.overall_avg_mshr_miss_latency::total 24842.603017                       # average overall mshr miss latency
system.cpu1.icache.replacements                  8866                       # number of replacements
system.cpu1.icache.ReadReq_hits::.cpu1.inst       623019                       # number of ReadReq hits
system.cpu1.icache.ReadReq_hits::total         623019                       # number of ReadReq hits
system.cpu1.icache.ReadReq_misses::.cpu1.inst         8882                       # number of ReadReq misses
system.cpu1.icache.ReadReq_misses::total         8882                       # number of ReadReq misses
system.cpu1.icache.ReadReq_miss_latency::.cpu1.inst    229534000                       # number of ReadReq miss cycles
system.cpu1.icache.ReadReq_miss_latency::total    229534000                       # number of ReadReq miss cycles
system.cpu1.icache.ReadReq_accesses::.cpu1.inst       631901                       # number of ReadReq accesses(hits+misses)
system.cpu1.icache.ReadReq_accesses::total       631901                       # number of ReadReq accesses(hits+misses)
system.cpu1.icache.ReadReq_miss_rate::.cpu1.inst     0.014056                       # miss rate for ReadReq accesses
system.cpu1.icache.ReadReq_miss_rate::total     0.014056                       # miss rate for ReadReq accesses
system.cpu1.icache.ReadReq_avg_miss_latency::.cpu1.inst 25842.603017                       # average ReadReq miss latency
system.cpu1.icache.ReadReq_avg_miss_latency::total 25842.603017                       # average ReadReq miss latency
system.cpu1.icache.ReadReq_mshr_misses::.cpu1.inst         8882                       # number of ReadReq MSHR misses
system.cpu1.icache.ReadReq_mshr_misses::total         8882                       # number of ReadReq MSHR misses
system.cpu1.icache.ReadReq_mshr_miss_latency::.cpu1.inst    220652000                       # number of ReadReq MSHR miss cycles
system.cpu1.icache.ReadReq_mshr_miss_latency::total    220652000                       # number of ReadReq MSHR miss cycles
system.cpu1.icache.ReadReq_mshr_miss_rate::.cpu1.inst     0.014056                       # mshr miss rate for ReadReq accesses
system.cpu1.icache.ReadReq_mshr_miss_rate::total     0.014056                       # mshr miss rate for ReadReq accesses
system.cpu1.icache.ReadReq_avg_mshr_miss_latency::.cpu1.inst 24842.603017                       # average ReadReq mshr miss latency
system.cpu1.icache.ReadReq_avg_mshr_miss_latency::total 24842.603017                       # average ReadReq mshr miss latency
system.cpu1.icache.power_state.pwrStateResidencyTicks::UNDEFINED  14157574500                       # Cumulative time (in ticks) in various power states
system.cpu1.icache.tags.tagsinuse           15.999010                       # Cycle average of tags in use
system.cpu1.icache.tags.total_refs             631901                       # Total number of references to valid blocks.
system.cpu1.icache.tags.sampled_refs             8882                       # Sample count of references to valid blocks.
system.cpu1.icache.tags.avg_refs            71.143999                       # Average number of references to valid blocks.
system.cpu1.icache.tags.warmup_cycle            92500                       # Cycle when the warmup percentage was hit.
system.cpu1.icache.tags.occ_blocks::.cpu1.inst    15.999010                       # Average occupied blocks per requestor
system.cpu1.icache.tags.occ_percent::.cpu1.inst     0.999938                       # Average percentage of cache occupancy
system.cpu1.icache.tags.occ_percent::total     0.999938                       # Average percentage of cache occupancy
system.cpu1.icache.tags.occ_task_id_blocks::1024           16                       # Occupied blocks per task id
system.cpu1.icache.tags.age_task_id_blocks_1024::4           16                       # Occupied blocks per task id
system.cpu1.icache.tags.occ_task_id_percent::1024            1                       # Percentage of cache occupancy per task id
system.cpu1.icache.tags.tag_accesses          5064090                       # Number of tag accesses
system.cpu1.icache.tags.data_accesses         5064090                       # Number of data accesses
system.cpu1.icache.tags.power_state.pwrStateResidencyTicks::UNDEFINED  14157574500                       # Cumulative time (in ticks) in various power states
system.cpu1.dtb.walker.power_state.pwrStateResidencyTicks::UNDEFINED  14157574500                       # Cumulative time (in ticks) in various power states
system.cpu1.interrupts.clk_domain.clock          8000                       # Clock period in ticks
system.cpu1.itb_walker_cache.blocked_cycles::no_mshrs            0                       # number of cycles access was blocked
system.cpu1.itb_walker_cache.blocked_cycles::no_targets            0                       # number of cycles access was blocked
system.cpu1.itb_walker_cache.blocked::no_mshrs            0                       # number of cycles access was blocked
system.cpu1.itb_walker_cache.blocked::no_targets            0                       # number of cycles access was blocked
system.cpu1.itb_walker_cache.avg_blocked_cycles::no_mshrs          nan                       # average number of cycles each access was blocked
system.cpu1.itb_walker_cache.avg_blocked_cycles::no_targets          nan                       # average number of cycles each access was blocked
system.cpu1.itb_walker_cache.replacements            0                       # number of replacements
system.cpu1.itb_walker_cache.power_state.pwrStateResidencyTicks::UNDEFINED  14157574500                       # Cumulative time (in ticks) in various power states
system.cpu1.itb_walker_cache.tags.tagsinuse            0                       # Cycle average of tags in use
system.cpu1.itb_walker_cache.tags.total_refs            0                       # Total number of references to valid blocks.
system.cpu1.itb_walker_cache.tags.sampled_refs            0                       # Sample count of references to valid blocks.
system.cpu1.itb_walker_cache.tags.avg_refs          nan                       # Average number of references to valid blocks.
system.cpu1.itb_walker_cache.tags.warmup_cycle            0                       # Cycle when the warmup percentage was hit.
system.cpu1.itb_walker_cache.tags.tag_accesses            0                       # Number of tag accesses
system.cpu1.itb_walker_cache.tags.data_accesses            0                       # Number of data accesses
system.cpu1.itb_walker_cache.tags.power_state.pwrStateResidencyTicks::UNDEFINED  14157574500                       # Cumulative time (in ticks) in various power states
system.cpu1.dtb_walker_cache.blocked_cycles::no_mshrs            0                       # number of cycles access was blocked
system.cpu1.dtb_walker_cache.blocked_cycles::no_targets            0                       # number of cycles access was blocked
system.cpu1.dtb_walker_cache.blocked::no_mshrs            0                       # number of cycles access was blocked
system.cpu1.dtb_walker_cache.blocked::no_targets            0                       # number of cycles access was blocked
system.cpu1.dtb_walker_cache.avg_blocked_cycles::no_mshrs          nan                       # average number of cycles each access was blocked
system.cpu1.dtb_walker_cache.avg_blocked_cycles::no_targets          nan                       # average number of cycles each access was blocked
system.cpu1.dtb_walker_cache.replacements            0                       # number of replacements
system.cpu1.dtb_walker_cache.power_state.pwrStateResidencyTicks::UNDEFINED  14157574500                       # Cumulative time (in ticks) in various power states
system.cpu1.dtb_walker_cache.tags.tagsinuse            0                       # Cycle average of tags in use
system.cpu1.dtb_walker_cache.tags.total_refs            0                       # Total number of references to valid blocks.
system.cpu1.dtb_walker_cache.tags.sampled_refs            0                       # Sample count of references to valid blocks.
system.cpu1.dtb_walker_cache.tags.avg_refs          nan                       # Average number of references to valid blocks.
system.cpu1.dtb_walker_cache.tags.warmup_cycle            0                       # Cycle when the warmup percentage was hit.
system.cpu1.dtb_walker_cache.tags.tag_accesses            0                       # Number of tag accesses
system.cpu1.dtb_walker_cache.tags.data_accesses            0                       # Number of data accesses
system.cpu1.dtb_walker_cache.tags.power_state.pwrStateResidencyTicks::UNDEFINED  14157574500                       # Cumulative time (in ticks) in various power states
system.cpu1.dcache.demand_hits::.cpu1.data      1283256                       # number of demand (read+write) hits
system.cpu1.dcache.demand_hits::total         1283256                       # number of demand (read+write) hits
system.cpu1.dcache.overall_hits::.cpu1.data      1283256                       # number of overall hits
system.cpu1.dcache.overall_hits::total        1283256                       # number of overall hits
system.cpu1.dcache.demand_misses::.cpu1.data       308244                       # number of demand (read+write) misses
system.cpu1.dcache.demand_misses::total        308244                       # number of demand (read+write) misses
system.cpu1.dcache.overall_misses::.cpu1.data       308244                       # number of overall misses
system.cpu1.dcache.overall_misses::total       308244                       # number of overall misses
system.cpu1.dcache.demand_miss_latency::.cpu1.data  23879357000                       # number of demand (read+write) miss cycles
system.cpu1.dcache.demand_miss_latency::total  23879357000                       # number of demand (read+write) miss cycles
system.cpu1.dcache.overall_miss_latency::.cpu1.data  23879357000                       # number of overall miss cycles
system.cpu1.dcache.overall_miss_latency::total  23879357000                       # number of overall miss cycles
system.cpu1.dcache.demand_accesses::.cpu1.data      1591500                       # number of demand (read+write) accesses
system.cpu1.dcache.demand_accesses::total      1591500                       # number of demand (read+write) accesses
system.cpu1.dcache.overall_accesses::.cpu1.data      1591500                       # number of overall (read+write) accesses
system.cpu1.dcache.overall_accesses::total      1591500                       # number of overall (read+write) accesses
system.cpu1.dcache.demand_miss_rate::.cpu1.data     0.193681                       # miss rate for demand accesses
system.cpu1.dcache.demand_miss_rate::total     0.193681                       # miss rate for demand accesses
system.cpu1.dcache.overall_miss_rate::.cpu1.data     0.193681                       # miss rate for overall accesses
system.cpu1.dcache.overall_miss_rate::total     0.193681                       # miss rate for overall accesses
system.cpu1.dcache.demand_avg_miss_latency::.cpu1.data 77469.008318                       # average overall miss latency
system.cpu1.dcache.demand_avg_miss_latency::total 77469.008318                       # average overall miss latency
system.cpu1.dcache.overall_avg_miss_latency::.cpu1.data 77469.008318                       # average overall miss latency
system.cpu1.dcache.overall_avg_miss_latency::total 77469.008318                       # average overall miss latency
system.cpu1.dcache.blocked_cycles::no_mshrs            0                       # number of cycles access was blocked
system.cpu1.dcache.blocked_cycles::no_targets            0                       # number of cycles access was blocked
system.cpu1.dcache.blocked::no_mshrs                0                       # number of cycles access was blocked
system.cpu1.dcache.blocked::no_targets              0                       # number of cycles access was blocked
system.cpu1.dcache.avg_blocked_cycles::no_mshrs          nan                       # average number of cycles each access was blocked
system.cpu1.dcache.avg_blocked_cycles::no_targets          nan                       # average number of cycles each access was blocked
system.cpu1.dcache.writebacks::.writebacks       149071                       # number of writebacks
system.cpu1.dcache.writebacks::total           149071                       # number of writebacks
system.cpu1.dcache.demand_mshr_hits::.cpu1.data       144901                       # number of demand (read+write) MSHR hits
system.cpu1.dcache.demand_mshr_hits::total       144901                       # number of demand (read+write) MSHR hits
system.cpu1.dcache.overall_mshr_hits::.cpu1.data       144901                       # number of overall MSHR hits
system.cpu1.dcache.overall_mshr_hits::total       144901                       # number of overall MSHR hits
system.cpu1.dcache.demand_mshr_misses::.cpu1.data       163343                       # number of demand (read+write) MSHR misses
system.cpu1.dcache.demand_mshr_misses::total       163343                       # number of demand (read+write) MSHR misses
system.cpu1.dcache.overall_mshr_misses::.cpu1.data       163343                       # number of overall MSHR misses
system.cpu1.dcache.overall_mshr_misses::total       163343                       # number of overall MSHR misses
system.cpu1.dcache.demand_mshr_miss_latency::.cpu1.data  12075627000                       # number of demand (read+write) MSHR miss cycles
system.cpu1.dcache.demand_mshr_miss_latency::total  12075627000                       # number of demand (read+write) MSHR miss cycles
system.cpu1.dcache.overall_mshr_miss_latency::.cpu1.data  12075627000                       # number of overall MSHR miss cycles
system.cpu1.dcache.overall_mshr_miss_latency::total  12075627000                       # number of overall MSHR miss cycles
system.cpu1.dcache.demand_mshr_miss_rate::.cpu1.data     0.102635                       # mshr miss rate for demand accesses
system.cpu1.dcache.demand_mshr_miss_rate::total     0.102635                       # mshr miss rate for demand accesses
system.cpu1.dcache.overall_mshr_miss_rate::.cpu1.data     0.102635                       # mshr miss rate for overall accesses
system.cpu1.dcache.overall_mshr_miss_rate::total     0.102635                       # mshr miss rate for overall accesses
system.cpu1.dcache.demand_avg_mshr_miss_latency::.cpu1.data 73928.034871                       # average overall mshr miss latency
system.cpu1.dcache.demand_avg_mshr_miss_latency::total 73928.034871                       # average overall mshr miss latency
system.cpu1.dcache.overall_avg_mshr_miss_latency::.cpu1.data 73928.034871                       # average overall mshr miss latency
system.cpu1.dcache.overall_avg_mshr_miss_latency::total 73928.034871                       # average overall mshr miss latency
system.cpu1.dcache.replacements                163326                       # number of replacements
system.cpu1.dcache.ReadReq_hits::.cpu1.data       329972                       # number of ReadReq hits
system.cpu1.dcache.ReadReq_hits::total         329972                       # number of ReadReq hits
system.cpu1.dcache.ReadReq_misses::.cpu1.data        16398                       # number of ReadReq misses
system.cpu1.dcache.ReadReq_misses::total        16398                       # number of ReadReq misses
system.cpu1.dcache.ReadReq_miss_latency::.cpu1.data    410619500                       # number of ReadReq miss cycles
system.cpu1.dcache.ReadReq_miss_latency::total    410619500                       # number of ReadReq miss cycles
system.cpu1.dcache.ReadReq_accesses::.cpu1.data       346370                       # number of ReadReq accesses(hits+misses)
system.cpu1.dcache.ReadReq_accesses::total       346370                       # number of ReadReq accesses(hits+misses)
system.cpu1.dcache.ReadReq_miss_rate::.cpu1.data     0.047342                       # miss rate for ReadReq accesses
system.cpu1.dcache.ReadReq_miss_rate::total     0.047342                       # miss rate for ReadReq accesses
system.cpu1.dcache.ReadReq_avg_miss_latency::.cpu1.data 25040.828150                       # average ReadReq miss latency
system.cpu1.dcache.ReadReq_avg_miss_latency::total 25040.828150                       # average ReadReq miss latency
system.cpu1.dcache.ReadReq_mshr_hits::.cpu1.data          302                       # number of ReadReq MSHR hits
[...]
system.mem_ctrls.bytesPerActivate::128-255         4202     14.10%     26.26% # Bytes accessed per row activation
system.mem_ctrls.bytesPerActivate::256-383         1685      5.65%     31.91% # Bytes accessed per row activation
system.mem_ctrls.bytesPerActivate::384-511         1323      4.44%     36.35% # Bytes accessed per row activation
system.mem_ctrls.bytesPerActivate::512-639         1231      4.13%     40.48% # Bytes accessed per row activation
system.mem_ctrls.bytesPerActivate::640-767          773      2.59%     43.08% # Bytes accessed per row activation
system.mem_ctrls.bytesPerActivate::768-895          758      2.54%     45.62% # Bytes accessed per row activation
system.mem_ctrls.bytesPerActivate::896-1023          833      2.79%     48.41% # Bytes accessed per row activation
system.mem_ctrls.bytesPerActivate::1024-1151        15375     51.59%    100.00% # Bytes accessed per row activation
system.mem_ctrls.bytesPerActivate::total        29805                       # Bytes accessed per row activation
system.mem_ctrls.rdPerTurnAround::samples         9336                       # Reads before turning the bus around for writes
system.mem_ctrls.rdPerTurnAround::mean      17.742609                       # Reads before turning the bus around for writes
system.mem_ctrls.rdPerTurnAround::gmean     16.929535                       # Reads before turning the bus around for writes
system.mem_ctrls.rdPerTurnAround::stdev     14.288618                       # Reads before turning the bus around for writes
system.mem_ctrls.rdPerTurnAround::0-31           9162     98.14%     98.14% # Reads before turning the bus around for writes
system.mem_ctrls.rdPerTurnAround::32-63            90      0.96%     99.10% # Reads before turning the bus around for writes
system.mem_ctrls.rdPerTurnAround::64-95            50      0.54%     99.64% # Reads before turning the bus around for writes
system.mem_ctrls.rdPerTurnAround::96-127           13      0.14%     99.78% # Reads before turning the bus around for writes
system.mem_ctrls.rdPerTurnAround::128-159            8      0.09%     99.86% # Reads before turning the bus around for writes
system.mem_ctrls.rdPerTurnAround::160-191            5      0.05%     99.91% # Reads before turning the bus around for writes
system.mem_ctrls.rdPerTurnAround::192-223            2      0.02%     99.94% # Reads before turning the bus around for writes
system.mem_ctrls.rdPerTurnAround::224-255            3      0.03%     99.97% # Reads before turning the bus around for writes
system.mem_ctrls.rdPerTurnAround::384-415            1      0.01%     99.98% # Reads before turning the bus around for writes
system.mem_ctrls.rdPerTurnAround::416-447            1      0.01%     99.99% # Reads before turning the bus around for writes
system.mem_ctrls.rdPerTurnAround::864-895            1      0.01%    100.00% # Reads before turning the bus around for writes
system.mem_ctrls.rdPerTurnAround::total          9336                       # Reads before turning the bus around for writes
system.mem_ctrls.wrPerTurnAround::samples         9336                       # Writes before turning the bus around for reads
system.mem_ctrls.wrPerTurnAround::mean      16.040167                       # Writes before turning the bus around for reads
system.mem_ctrls.wrPerTurnAround::gmean     16.037250                       # Writes before turning the bus around for reads
system.mem_ctrls.wrPerTurnAround::stdev      0.323004                       # Writes before turning the bus around for reads
system.mem_ctrls.wrPerTurnAround::16             9179     98.32%     98.32% # Writes before turning the bus around for reads
system.mem_ctrls.wrPerTurnAround::17               12      0.13%     98.45% # Writes before turning the bus around for reads
system.mem_ctrls.wrPerTurnAround::18               83      0.89%     99.34% # Writes before turning the bus around for reads
system.mem_ctrls.wrPerTurnAround::19               55      0.59%     99.93% # Writes before turning the bus around for reads
system.mem_ctrls.wrPerTurnAround::20                4      0.04%     99.97% # Writes before turning the bus around for reads
system.mem_ctrls.wrPerTurnAround::21                2      0.02%     99.99% # Writes before turning the bus around for reads
system.mem_ctrls.wrPerTurnAround::22                1      0.01%    100.00% # Writes before turning the bus around for reads
system.mem_ctrls.wrPerTurnAround::total          9336                       # Writes before turning the bus around for reads
system.mem_ctrls.bytesReadDRAM               10601344                       # Total number of bytes read from DRAM
system.mem_ctrls.bytesReadWrQ                   10496                       # Total number of bytes read from write queue
system.mem_ctrls.bytesWritten                 9584064                       # Total number of bytes written to DRAM
system.mem_ctrls.bytesReadSys                10611840                       # Total read bytes from the system interface side
system.mem_ctrls.bytesWrittenSys              9585408                       # Total written bytes from the system interface side
system.mem_ctrls.avgRdBW                       748.81                       # Average DRAM read bandwidth in MiByte/s
system.mem_ctrls.avgWrBW                       676.96                       # Average achieved write bandwidth in MiByte/s
system.mem_ctrls.avgRdBWSys                    749.55                       # Average system read bandwidth in MiByte/s
system.mem_ctrls.avgWrBWSys                    677.05                       # Average system write bandwidth in MiByte/s
system.mem_ctrls.peakBW                      12800.00                       # Theoretical peak bandwidth in MiByte/s
system.mem_ctrls.busUtil                        11.14                       # Data bus utilization in percentage
system.mem_ctrls.busUtilRead                     5.85                       # Data bus utilization in percentage for reads
system.mem_ctrls.busUtilWrite                    5.29                       # Data bus utilization in percentage for writes
system.mem_ctrls.totGap                   14157472500                       # Total gap between requests
system.mem_ctrls.avgGap                      44861.47                       # Average gap between requests
system.mem_ctrls.masterReadBytes::.cpu0.inst       205376                       # Per-master bytes read from memory
system.mem_ctrls.masterReadBytes::.cpu0.data      1032512                       # Per-master bytes read from memory
system.mem_ctrls.masterReadBytes::.cpu1.inst       100160                       # Per-master bytes read from memory
system.mem_ctrls.masterReadBytes::.cpu1.data      9263296                       # Per-master bytes read from memory
system.mem_ctrls.masterWriteBytes::.writebacks      9584064                       # Per-master bytes write to memory
system.mem_ctrls.masterReadRate::.cpu0.inst 14506439.644728692248                       # Per-master bytes read from memory rate (Bytes/sec)
system.mem_ctrls.masterReadRate::.cpu0.data 72930006.478157684207                       # Per-master bytes read from memory rate (Bytes/sec)
system.mem_ctrls.masterReadRate::.cpu1.inst 7074658.162667623721                       # Per-master bytes read from memory rate (Bytes/sec)
system.mem_ctrls.masterReadRate::.cpu1.data 654299647.160606503487                       # Per-master bytes read from memory rate (Bytes/sec)
system.mem_ctrls.masterWriteRate::.writebacks 676956635.474529862404                       # Per-master bytes write to memory rate (Bytes/sec)
system.mem_ctrls.masterReadAccesses::.cpu0.inst         3209                       # Per-master read serviced memory accesses
system.mem_ctrls.masterReadAccesses::.cpu0.data        16285                       # Per-master read serviced memory accesses
system.mem_ctrls.masterReadAccesses::.cpu1.inst         1565                       # Per-master read serviced memory accesses
system.mem_ctrls.masterReadAccesses::.cpu1.data       144751                       # Per-master read serviced memory accesses
system.mem_ctrls.masterWriteAccesses::.writebacks       149772                       # Per-master write serviced memory accesses
system.mem_ctrls.masterReadTotalLat::.cpu0.inst    101422000                       # Per-master read total memory access latency
system.mem_ctrls.masterReadTotalLat::.cpu0.data    547834500                       # Per-master read total memory access latency
system.mem_ctrls.masterReadTotalLat::.cpu1.inst     46418750                       # Per-master read total memory access latency
system.mem_ctrls.masterReadTotalLat::.cpu1.data   4145404750                       # Per-master read total memory access latency
system.mem_ctrls.masterWriteTotalLat::.writebacks 350872973500                       # Per-master write total memory access latency
system.mem_ctrls.masterReadAvgLat::.cpu0.inst     31605.48                       # Per-master read average memory access latency
system.mem_ctrls.masterReadAvgLat::.cpu0.data     33640.44                       # Per-master read average memory access latency
system.mem_ctrls.masterReadAvgLat::.cpu1.inst     29660.54                       # Per-master read average memory access latency
system.mem_ctrls.masterReadAvgLat::.cpu1.data     28638.18                       # Per-master read average memory access latency
system.mem_ctrls.masterWriteAvgLat::.writebacks   2342714.08                       # Per-master write average memory access latency
system.mem_ctrls.pageHitRate                    90.54                       # Row buffer hit rate, read and write combined
system.mem_ctrls.rank1.actEnergy            110320140                       # Energy for activate commands per rank (pJ)
system.mem_ctrls.rank1.preEnergy             58632750                       # Energy for precharge commands per rank (pJ)
system.mem_ctrls.rank1.readEnergy           598096380                       # Energy for read commands per rank (pJ)
system.mem_ctrls.rank1.writeEnergy          394569360                       # Energy for write commands per rank (pJ)
system.mem_ctrls.rank1.refreshEnergy     1117415520.000000                       # Energy for refresh commands per rank (pJ)
system.mem_ctrls.rank1.actBackEnergy       5449603560                       # Energy for active background per rank (pJ)
system.mem_ctrls.rank1.preBackEnergy        847368960                       # Energy for precharge background per rank (pJ)
system.mem_ctrls.rank1.actPowerDownEnergy            0                       # Energy for active power-down per rank (pJ)
system.mem_ctrls.rank1.prePowerDownEnergy            0                       # Energy for precharge power-down per rank (pJ)
system.mem_ctrls.rank1.selfRefreshEnergy            0                       # Energy for self refresh per rank (pJ)
system.mem_ctrls.rank1.totalEnergy         8576006670                       # Total energy per rank (pJ)
system.mem_ctrls.rank1.averagePower        605.753950                       # Core power per rank (mW)
system.mem_ctrls.rank1.totalIdleTime                0                       # Total Idle time Per DRAM Rank
system.mem_ctrls.rank1.memoryStateTime::IDLE   2128749250                       # Time in different power states
system.mem_ctrls.rank1.memoryStateTime::REF    472680000                       # Time in different power states
system.mem_ctrls.rank1.memoryStateTime::SREF            0                       # Time in different power states
system.mem_ctrls.rank1.memoryStateTime::PRE_PDN            0                       # Time in different power states
system.mem_ctrls.rank1.memoryStateTime::ACT  11556145250                       # Time in different power states
system.mem_ctrls.rank1.memoryStateTime::ACT_PDN            0                       # Time in different power states
system.mem_ctrls.rank0.actEnergy            102501840                       # Energy for activate commands per rank (pJ)
system.mem_ctrls.rank0.preEnergy             54473430                       # Energy for precharge commands per rank (pJ)
system.mem_ctrls.rank0.readEnergy           584616060                       # Energy for read commands per rank (pJ)
system.mem_ctrls.rank0.writeEnergy          387130860                       # Energy for write commands per rank (pJ)
system.mem_ctrls.rank0.refreshEnergy     1117415520.000000                       # Energy for refresh commands per rank (pJ)
system.mem_ctrls.rank0.actBackEnergy       5392742070                       # Energy for active background per rank (pJ)
system.mem_ctrls.rank0.preBackEnergy        895252320                       # Energy for precharge background per rank (pJ)
system.mem_ctrls.rank0.actPowerDownEnergy            0                       # Energy for active power-down per rank (pJ)
system.mem_ctrls.rank0.prePowerDownEnergy            0                       # Energy for precharge power-down per rank (pJ)
system.mem_ctrls.rank0.selfRefreshEnergy            0                       # Energy for self refresh per rank (pJ)
system.mem_ctrls.rank0.totalEnergy         8534132100                       # Total energy per rank (pJ)
system.mem_ctrls.rank0.averagePower        602.796199                       # Core power per rank (mW)
system.mem_ctrls.rank0.totalIdleTime                0                       # Total Idle time Per DRAM Rank
system.mem_ctrls.rank0.memoryStateTime::IDLE   2251045500                       # Time in different power states
system.mem_ctrls.rank0.memoryStateTime::REF    472680000                       # Time in different power states
system.mem_ctrls.rank0.memoryStateTime::SREF            0                       # Time in different power states
system.mem_ctrls.rank0.memoryStateTime::PRE_PDN            0                       # Time in different power states
system.mem_ctrls.rank0.memoryStateTime::ACT  11433849000                       # Time in different power states
system.mem_ctrls.rank0.memoryStateTime::ACT_PDN            0                       # Time in different power states
system.mem_ctrls.power_state.pwrStateResidencyTicks::UNDEFINED  14157574500                       # Cumulative time (in ticks) in various power states
system.cpu_clk_domain.clock                       500                       # Clock period in ticks
system.tol2bus.trans_dist::ReadResp            205189                       # Transaction distribution
system.tol2bus.trans_dist::WritebackDirty       359177                       # Transaction distribution
system.tol2bus.trans_dist::WritebackClean        22688                       # Transaction distribution
system.tol2bus.trans_dist::CleanEvict          190528                       # Transaction distribution
system.tol2bus.trans_dist::ReadExReq           202247                       # Transaction distribution
system.tol2bus.trans_dist::ReadExResp          202246                       # Transaction distribution
system.tol2bus.trans_dist::ReadCleanReq         22720                       # Transaction distribution
system.tol2bus.trans_dist::ReadSharedReq       182469                       # Transaction distribution
system.tol2bus.pkt_count_system.cpu0.icache.mem_side::system.l2.cpu_side        41498                       # Packet count per connected master and slave (bytes)
system.tol2bus.pkt_count_system.cpu0.dcache.mem_side::system.l2.cpu_side       664103                       # Packet count per connected master and slave (bytes)
system.tol2bus.pkt_count_system.cpu1.icache.mem_side::system.l2.cpu_side        26630                       # Packet count per connected master and slave (bytes)
system.tol2bus.pkt_count_system.cpu1.dcache.mem_side::system.l2.cpu_side       490011                       # Packet count per connected master and slave (bytes)
system.tol2bus.pkt_count::total               1222242                       # Packet count per connected master and slave (bytes)
system.tol2bus.pkt_size_system.cpu0.icache.mem_side::system.l2.cpu_side      1770240                       # Cumulative packet size per connected master and slave (bytes)
system.tol2bus.pkt_size_system.cpu0.dcache.mem_side::system.l2.cpu_side     18029248                       # Cumulative packet size per connected master and slave (bytes)
system.tol2bus.pkt_size_system.cpu1.icache.mem_side::system.l2.cpu_side      1135872                       # Cumulative packet size per connected master and slave (bytes)
system.tol2bus.pkt_size_system.cpu1.dcache.mem_side::system.l2.cpu_side     19994432                       # Cumulative packet size per connected master and slave (bytes)
system.tol2bus.pkt_size::total               40929792                       # Cumulative packet size per connected master and slave (bytes)
system.tol2bus.snoops                          165022                       # Total snoops (count)
system.tol2bus.snoopTraffic                   9585408                       # Total snoop traffic (bytes)
system.tol2bus.snoop_fanout::samples           572458                       # Request fanout histogram
system.tol2bus.snoop_fanout::mean            0.000468                       # Request fanout histogram
system.tol2bus.snoop_fanout::stdev           0.021632                       # Request fanout histogram
system.tol2bus.snoop_fanout::underflows             0      0.00%      0.00% # Request fanout histogram
system.tol2bus.snoop_fanout::0                 572190     99.95%     99.95% # Request fanout histogram
system.tol2bus.snoop_fanout::1                    268      0.05%    100.00% # Request fanout histogram
system.tol2bus.snoop_fanout::2                      0      0.00%    100.00% # Request fanout histogram
system.tol2bus.snoop_fanout::3                      0      0.00%    100.00% # Request fanout histogram
system.tol2bus.snoop_fanout::4                      0      0.00%    100.00% # Request fanout histogram
system.tol2bus.snoop_fanout::5                      0      0.00%    100.00% # Request fanout histogram
system.tol2bus.snoop_fanout::6                      0      0.00%    100.00% # Request fanout histogram
system.tol2bus.snoop_fanout::7                      0      0.00%    100.00% # Request fanout histogram
system.tol2bus.snoop_fanout::8                      0      0.00%    100.00% # Request fanout histogram
system.tol2bus.snoop_fanout::overflows              0      0.00%    100.00% # Request fanout histogram
system.tol2bus.snoop_fanout::min_value              0                       # Request fanout histogram
system.tol2bus.snoop_fanout::max_value              1                       # Request fanout histogram
system.tol2bus.snoop_fanout::total             572458                       # Request fanout histogram
system.tol2bus.reqLayer0.occupancy          639496500                       # Layer occupancy (ticks)
system.tol2bus.reqLayer0.utilization              4.5                       # Layer utilization (%)
system.tol2bus.respLayer5.occupancy         245590842                       # Layer occupancy (ticks)
system.tol2bus.respLayer5.utilization             1.7                       # Layer utilization (%)
system.tol2bus.respLayer4.occupancy          13335475                       # Layer occupancy (ticks)
system.tol2bus.respLayer4.utilization             0.1                       # Layer utilization (%)
system.tol2bus.respLayer1.occupancy         332110896                       # Layer occupancy (ticks)
system.tol2bus.respLayer1.utilization             2.3                       # Layer utilization (%)
system.tol2bus.respLayer0.occupancy          20775962                       # Layer occupancy (ticks)
system.tol2bus.respLayer0.utilization             0.1                       # Layer utilization (%)
system.tol2bus.power_state.pwrStateResidencyTicks::UNDEFINED  14157574500                       # Cumulative time (in ticks) in various power states

---------- End Simulation Statistics   ----------
