
---------- Begin Simulation Statistics ----------
final_tick                                20173237000                       # Number of ticks from beginning of simulation (restored from checkpoints and never reset)
host_inst_rate                                 222618                       # Simulator instruction rate (inst/s)
host_mem_usage                                4437600                       # Number of bytes of host memory used
host_op_rate                                   376407                       # Simulator op (including micro ops) rate (op/s)
host_seconds                                    57.19                       # Real time elapsed on the host
host_tick_rate                              352737979                       # Simulator tick rate (ticks/s)
sim_freq                                 1000000000000                       # Frequency of simulated ticks
sim_insts                                    12731593                       # Number of instructions simulated
sim_ops                                      21526874                       # Number of ops (including micro ops) simulated
sim_seconds                                  0.020173                       # Number of seconds simulated
sim_ticks                                 20173237000                       # Number of ticks simulated
system.cpu0.branchPred.BTBCorrect                   0                       # Number of correct BTB predictions (this stat may not work properly.
system.cpu0.branchPred.BTBHitPct                  nan                       # BTB Hit Percentage
system.cpu0.branchPred.BTBHits                      0                       # Number of BTB hits
system.cpu0.branchPred.BTBLookups                   0                       # Number of BTB lookups
system.cpu0.branchPred.RASInCorrect                 0                       # Number of incorrect RAS predictions.
system.cpu0.branchPred.condIncorrect               37                       # Number of conditional branches incorrect
system.cpu0.branchPred.condPredicted               81                       # Number of conditional branches predicted
system.cpu0.branchPred.indirectHits                 0                       # Number of indirect target hits.
system.cpu0.branchPred.indirectLookups             24                       # Number of indirect predictor lookups.
system.cpu0.branchPred.indirectMisses              24                       # Number of indirect misses.
system.cpu0.branchPred.lookups                     81                       # Number of BP lookups
system.cpu0.branchPred.usedRAS                      0                       # Number of times the RAS was used to get a target.
system.cpu0.branchPredindirectMispredicted           11                       # Number of mispredicted indirect branches.
system.cpu0.committedInsts                   10000000                       # Number of instructions committed
system.cpu0.committedOps                     16363461                       # Number of ops (including micro ops) committed
system.cpu0.cpi                              4.034647                       # CPI: cycles per instruction
system.cpu0.discardedOps                      5149774                       # Number of ops (including micro ops) which were discarded before commit
system.cpu0.dtb.rdAccesses                    1469159                       # TLB accesses on read requests
system.cpu0.dtb.rdMisses                         2708                       # TLB misses on read requests
system.cpu0.dtb.wrAccesses                     672209                       # TLB accesses on write requests
system.cpu0.dtb.wrMisses                           92                       # TLB misses on write requests
system.cpu0.fetch2.amo_instructions                 0                       # Number of memory atomic instructions successfully decoded
system.cpu0.fetch2.fp_instructions                  0                       # Number of floating point instructions successfully decoded
system.cpu0.fetch2.int_instructions                 9                       # Number of integer instructions successfully decoded
system.cpu0.fetch2.load_instructions                0                       # Number of memory load instructions successfully decoded
system.cpu0.fetch2.store_instructions               0                       # Number of memory store instructions successfully decoded
system.cpu0.fetch2.vec_instructions                 0                       # Number of SIMD instructions successfully decoded
system.cpu0.idleCycles                        7633229                       # Total number of cycles that the object has spent stopped
system.cpu0.ipc                              0.247853                       # IPC: instructions per cycle
system.cpu0.itb.rdAccesses                          0                       # TLB accesses on read requests
system.cpu0.itb.rdMisses                            0                       # TLB misses on read requests
system.cpu0.itb.wrAccesses                    4763765                       # TLB accesses on write requests
system.cpu0.itb.wrMisses                          266                       # TLB misses on write requests
system.cpu0.numCycles                        40346474                       # number of cpu cycles simulated
system.cpu0.numFetchSuspends                        0                       # Number of times Execute suspended instruction fetching
system.cpu0.numWorkItemsCompleted                   0                       # number of work items this cpu completed
system.cpu0.numWorkItemsStarted                     0                       # number of work items this cpu started
system.cpu0.op_class_0::No_OpClass              12560      0.08%      0.08% # Class of committed instruction
system.cpu0.op_class_0::IntAlu               14085339     86.08%     86.15% # Class of committed instruction
system.cpu0.op_class_0::IntMult                  6224      0.04%     86.19% # Class of committed instruction
system.cpu0.op_class_0::IntDiv                   1592      0.01%     86.20% # Class of committed instruction
system.cpu0.op_class_0::FloatAdd               139604      0.85%     87.06% # Class of committed instruction
system.cpu0.op_class_0::FloatCmp                    0      0.00%     87.06% # Class of committed instruction
system.cpu0.op_class_0::FloatCvt                  144      0.00%     87.06% # Class of committed instruction
system.cpu0.op_class_0::FloatMult                   0      0.00%     87.06% # Class of committed instruction
system.cpu0.op_class_0::FloatMultAcc                0      0.00%     87.06% # Class of committed instruction
system.cpu0.op_class_0::FloatDiv                    0      0.00%     87.06% # Class of committed instruction
system.cpu0.op_class_0::FloatMisc                   0      0.00%     87.06% # Class of committed instruction
system.cpu0.op_class_0::FloatSqrt                   0      0.00%     87.06% # Class of committed instruction
system.cpu0.op_class_0::SimdAdd                  1170      0.01%     87.06% # Class of committed instruction
system.cpu0.op_class_0::SimdAddAcc                  0      0.00%     87.06% # Class of committed instruction
system.cpu0.op_class_0::SimdAlu                  1323      0.01%     87.07% # Class of committed instruction
system.cpu0.op_class_0::SimdCmp                     6      0.00%     87.07% # Class of committed instruction
system.cpu0.op_class_0::SimdCvt                  1838      0.01%     87.08% # Class of committed instruction
system.cpu0.op_class_0::SimdMisc                17658      0.11%     87.19% # Class of committed instruction
system.cpu0.op_class_0::SimdMult                    0      0.00%     87.19% # Class of committed instruction
system.cpu0.op_class_0::SimdMultAcc                 0      0.00%     87.19% # Class of committed instruction
system.cpu0.op_class_0::SimdShift                 408      0.00%     87.19% # Class of committed instruction
system.cpu0.op_class_0::SimdShiftAcc                0      0.00%     87.19% # Class of committed instruction
system.cpu0.op_class_0::SimdDiv                     0      0.00%     87.19% # Class of committed instruction
system.cpu0.op_class_0::SimdSqrt                    0      0.00%     87.19% # Class of committed instruction
system.cpu0.op_class_0::SimdFloatAdd            28658      0.18%     87.37% # Class of committed instruction
system.cpu0.op_class_0::SimdFloatAlu                0      0.00%     87.37% # Class of committed instruction
system.cpu0.op_class_0::SimdFloatCmp                0      0.00%     87.37% # Class of committed instruction
system.cpu0.op_class_0::SimdFloatCvt            34832      0.21%     87.58% # Class of committed instruction
system.cpu0.op_class_0::SimdFloatDiv               22      0.00%     87.58% # Class of committed instruction
system.cpu0.op_class_0::SimdFloatMisc               0      0.00%     87.58% # Class of committed instruction
system.cpu0.op_class_0::SimdFloatMult           49128      0.30%     87.88% # Class of committed instruction
system.cpu0.op_class_0::SimdFloatMultAcc            0      0.00%     87.88% # Class of committed instruction
system.cpu0.op_class_0::SimdFloatSqrt               0      0.00%     87.88% # Class of committed instruction
system.cpu0.op_class_0::SimdReduceAdd               0      0.00%     87.88% # Class of committed instruction
system.cpu0.op_class_0::SimdReduceAlu               0      0.00%     87.88% # Class of committed instruction
system.cpu0.op_class_0::SimdReduceCmp               0      0.00%     87.88% # Class of committed instruction
system.cpu0.op_class_0::SimdFloatReduceAdd            0      0.00%     87.88% # Class of committed instruction
system.cpu0.op_class_0::SimdFloatReduceCmp            0      0.00%     87.88% # Class of committed instruction
system.cpu0.op_class_0::SimdAes                     0      0.00%     87.88% # Class of committed instruction
system.cpu0.op_class_0::SimdAesMix                  0      0.00%     87.88% # Class of committed instruction
system.cpu0.op_class_0::SimdSha1Hash                0      0.00%     87.88% # Class of committed instruction
system.cpu0.op_class_0::SimdSha1Hash2               0      0.00%     87.88% # Class of committed instruction
system.cpu0.op_class_0::SimdSha256Hash              0      0.00%     87.88% # Class of committed instruction
system.cpu0.op_class_0::SimdSha256Hash2             0      0.00%     87.88% # Class of committed instruction
system.cpu0.op_class_0::SimdShaSigma2               0      0.00%     87.88% # Class of committed instruction
system.cpu0.op_class_0::SimdShaSigma3               0      0.00%     87.88% # Class of committed instruction
system.cpu0.op_class_0::SimdPredAlu                 0      0.00%     87.88% # Class of committed instruction
system.cpu0.op_class_0::MemRead               1263997      7.72%     95.61% # Class of committed instruction
system.cpu0.op_class_0::MemWrite               592755      3.62%     99.23% # Class of committed instruction
system.cpu0.op_class_0::FloatMemRead            80716      0.49%     99.72% # Class of committed instruction
system.cpu0.op_class_0::FloatMemWrite           45487      0.28%    100.00% # Class of committed instruction
system.cpu0.op_class_0::IprAccess                   0      0.00%    100.00% # Class of committed instruction
system.cpu0.op_class_0::InstPrefetch                0      0.00%    100.00% # Class of committed instruction
system.cpu0.op_class_0::total                16363461                       # Class of committed instruction
system.cpu0.tickCycles                       32713245                       # Number of cycles that the object actually ticked
system.cpu0.workload.numSyscalls                   37                       # Number of system calls
system.cpu1.branchPred.BTBCorrect                   0                       # Number of correct BTB predictions (this stat may not work properly.
system.cpu1.branchPred.BTBHitPct                  nan                       # BTB Hit Percentage
system.cpu1.branchPred.BTBHits                      0                       # Number of BTB hits
system.cpu1.branchPred.BTBLookups                   0                       # Number of BTB lookups
system.cpu1.branchPred.RASInCorrect                 0                       # Number of incorrect RAS predictions.
system.cpu1.branchPred.condIncorrect               34                       # Number of conditional branches incorrect
system.cpu1.branchPred.condPredicted               72                       # Number of conditional branches predicted
system.cpu1.branchPred.indirectHits                 0                       # Number of indirect target hits.
system.cpu1.branchPred.indirectLookups             32                       # Number of indirect predictor lookups.
system.cpu1.branchPred.indirectMisses              32                       # Number of indirect misses.
system.cpu1.branchPred.lookups                     72                       # Number of BP lookups
system.cpu1.branchPred.usedRAS                      0                       # Number of times the RAS was used to get a target.
system.cpu1.branchPredindirectMispredicted           19                       # Number of mispredicted indirect branches.
system.cpu1.committedInsts                    2731593                       # Number of instructions committed
system.cpu1.committedOps                      5163413                       # Number of ops (including micro ops) committed
system.cpu1.cpi                             14.770288                       # CPI: cycles per instruction
system.cpu1.discardedOps                       960242                       # Number of ops (including micro ops) which were discarded before commit
system.cpu1.dtb.rdAccesses                     695886                       # TLB accesses on read requests
system.cpu1.dtb.rdMisses                        10283                       # TLB misses on read requests
system.cpu1.dtb.wrAccesses                     495156                       # TLB accesses on write requests
system.cpu1.dtb.wrMisses                          370                       # TLB misses on write requests
system.cpu1.fetch2.amo_instructions                 0                       # Number of memory atomic instructions successfully decoded
system.cpu1.fetch2.fp_instructions                  0                       # Number of floating point instructions successfully decoded
system.cpu1.fetch2.int_instructions                 8                       # Number of integer instructions successfully decoded
system.cpu1.fetch2.load_instructions                0                       # Number of memory load instructions successfully decoded
system.cpu1.fetch2.store_instructions               0                       # Number of memory store instructions successfully decoded
system.cpu1.fetch2.vec_instructions                 0                       # Number of SIMD instructions successfully decoded
system.cpu1.idleCycles                       31391337                       # Total number of cycles that the object has spent stopped
system.cpu1.ipc                              0.067703                       # IPC: instructions per cycle
system.cpu1.itb.rdAccesses                          0                       # TLB accesses on read requests
system.cpu1.itb.rdMisses                            0                       # TLB misses on read requests
system.cpu1.itb.wrAccesses                     911913                       # TLB accesses on write requests
system.cpu1.itb.wrMisses                          208                       # TLB misses on write requests
system.cpu1.numCycles                        40346414                       # number of cpu cycles simulated
system.cpu1.numFetchSuspends                        0                       # Number of times Execute suspended instruction fetching
system.cpu1.numWorkItemsCompleted                   0                       # number of work items this cpu completed
system.cpu1.numWorkItemsStarted                     0                       # number of work items this cpu started
system.cpu1.op_class_0::No_OpClass              11784      0.23%      0.23% # Class of committed instruction
system.cpu1.op_class_0::IntAlu                4044990     78.34%     78.57% # Class of committed instruction
system.cpu1.op_class_0::IntMult                  9903      0.19%     78.76% # Class of committed instruction
system.cpu1.op_class_0::IntDiv                   1365      0.03%     78.79% # Class of committed instruction
system.cpu1.op_class_0::FloatAdd                 6839      0.13%     78.92% # Class of committed instruction
system.cpu1.op_class_0::FloatCmp                    0      0.00%     78.92% # Class of committed instruction
system.cpu1.op_class_0::FloatCvt                  160      0.00%     78.92% # Class of committed instruction
system.cpu1.op_class_0::FloatMult                   0      0.00%     78.92% # Class of committed instruction
system.cpu1.op_class_0::FloatMultAcc                0      0.00%     78.92% # Class of committed instruction
system.cpu1.op_class_0::FloatDiv                    0      0.00%     78.92% # Class of committed instruction
system.cpu1.op_class_0::FloatMisc                   0      0.00%     78.92% # Class of committed instruction
system.cpu1.op_class_0::FloatSqrt                   0      0.00%     78.92% # Class of committed instruction
system.cpu1.op_class_0::SimdAdd                   946      0.02%     78.94% # Class of committed instruction
system.cpu1.op_class_0::SimdAddAcc                  0      0.00%     78.94% # Class of committed instruction
system.cpu1.op_class_0::SimdAlu                  1027      0.02%     78.96% # Class of committed instruction
system.cpu1.op_class_0::SimdCmp                    12      0.00%     78.96% # Class of committed instruction
system.cpu1.op_class_0::SimdCvt                  8338      0.16%     79.12% # Class of committed instruction
system.cpu1.op_class_0::SimdMisc                30976      0.60%     79.72% # Class of committed instruction
system.cpu1.op_class_0::SimdMult                    0      0.00%     79.72% # Class of committed instruction
system.cpu1.op_class_0::SimdMultAcc                 0      0.00%     79.72% # Class of committed instruction
system.cpu1.op_class_0::SimdShift                 446      0.01%     79.73% # Class of committed instruction
system.cpu1.op_class_0::SimdShiftAcc                0      0.00%     79.73% # Class of committed instruction
system.cpu1.op_class_0::SimdDiv                     0      0.00%     79.73% # Class of committed instruction
system.cpu1.op_class_0::SimdSqrt                    0      0.00%     79.73% # Class of committed instruction
system.cpu1.op_class_0::SimdFloatAdd                0      0.00%     79.73% # Class of committed instruction
system.cpu1.op_class_0::SimdFloatAlu                0      0.00%     79.73% # Class of committed instruction
system.cpu1.op_class_0::SimdFloatCmp                0      0.00%     79.73% # Class of committed instruction
system.cpu1.op_class_0::SimdFloatCvt                0      0.00%     79.73% # Class of committed instruction
system.cpu1.op_class_0::SimdFloatDiv                0      0.00%     79.73% # Class of committed instruction
system.cpu1.op_class_0::SimdFloatMisc               0      0.00%     79.73% # Class of committed instruction
system.cpu1.op_class_0::SimdFloatMult               0      0.00%     79.73% # Class of committed instruction
system.cpu1.op_class_0::SimdFloatMultAcc            0      0.00%     79.73% # Class of committed instruction
system.cpu1.op_class_0::SimdFloatSqrt               0      0.00%     79.73% # Class of committed instruction
system.cpu1.op_class_0::SimdReduceAdd               0      0.00%     79.73% # Class of committed instruction
system.cpu1.op_class_0::SimdReduceAlu               0      0.00%     79.73% # Class of committed instruction
system.cpu1.op_class_0::SimdReduceCmp               0      0.00%     79.73% # Class of committed instruction
system.cpu1.op_class_0::SimdFloatReduceAdd            0      0.00%     79.73% # Class of committed instruction
system.cpu1.op_class_0::SimdFloatReduceCmp            0      0.00%     79.73% # Class of committed instruction
system.cpu1.op_class_0::SimdAes                     0      0.00%     79.73% # Class of committed instruction
system.cpu1.op_class_0::SimdAesMix                  0      0.00%     79.73% # Class of committed instruction
system.cpu1.op_class_0::SimdSha1Hash                0      0.00%     79.73% # Class of committed instruction
system.cpu1.op_class_0::SimdSha1Hash2               0      0.00%     79.73% # Class of committed instruction
system.cpu1.op_class_0::SimdSha256Hash              0      0.00%     79.73% # Class of committed instruction
system.cpu1.op_class_0::SimdSha256Hash2             0      0.00%     79.73% # Class of committed instruction
system.cpu1.op_class_0::SimdShaSigma2               0      0.00%     79.73% # Class of committed instruction
system.cpu1.op_class_0::SimdShaSigma3               0      0.00%     79.73% # Class of committed instruction
system.cpu1.op_class_0::SimdPredAlu                 0      0.00%     79.73% # Class of committed instruction
system.cpu1.op_class_0::MemRead                567869     11.00%     90.73% # Class of committed instruction
system.cpu1.op_class_0::MemWrite               448736      8.69%     99.42% # Class of committed instruction
system.cpu1.op_class_0::FloatMemRead            18796      0.36%     99.78% # Class of committed instruction
system.cpu1.op_class_0::FloatMemWrite           11226      0.22%    100.00% # Class of committed instruction
system.cpu1.op_class_0::IprAccess                   0      0.00%    100.00% # Class of committed instruction
system.cpu1.op_class_0::InstPrefetch                0      0.00%    100.00% # Class of committed instruction
system.cpu1.op_class_0::total                 5163413                       # Class of committed instruction
system.cpu1.tickCycles                        8955077                       # Number of cycles that the object actually ticked
system.cpu1.workload.numSyscalls                   34                       # Number of system calls
system.membus.snoop_filter.hit_multi_requests            0                       # Number of requests hitting in the snoop filter with multiple (>1) holders of the requested data.
system.membus.snoop_filter.hit_multi_snoops            0                       # Number of snoops hitting in the snoop filter with multiple (>1) holders of the requested data.
system.membus.snoop_filter.hit_single_requests       215672                       # Number of requests hitting in the snoop filter with a single holder of the requested data.
system.membus.snoop_filter.hit_single_snoops            0                       # Number of snoops hitting in the snoop filter with a single holder of the requested data.
system.membus.snoop_filter.tot_requests        432369                       # Total number of requests made to the snoop filter.
system.membus.snoop_filter.tot_snoops               0                       # Total number of snoops made to the snoop filter.
system.tol2bus.snoop_filter.hit_multi_requests            0                       # Number of requests hitting in the snoop filter with multiple (>1) holders of the requested data.
system.tol2bus.snoop_filter.hit_multi_snoops            0                       # Number of snoops hitting in the snoop filter with multiple (>1) holders of the requested data.
system.tol2bus.snoop_filter.hit_single_requests       968024                       # Number of requests hitting in the snoop filter with a single holder of the requested data.
system.tol2bus.snoop_filter.hit_single_snoops        12877                       # Number of snoops hitting in the snoop filter with a single holder of the requested data.
system.tol2bus.snoop_filter.tot_requests      1936113                       # Total number of requests made to the snoop filter.
system.tol2bus.snoop_filter.tot_snoops          12877                       # Total number of snoops made to the snoop filter.
system.membus.trans_dist::ReadResp             198629                       # Transaction distribution
system.membus.trans_dist::WritebackDirty        24403                       # Transaction distribution
system.membus.trans_dist::CleanEvict           191269                       # Transaction distribution
system.membus.trans_dist::ReadExReq             18067                       # Transaction distribution
system.membus.trans_dist::ReadExResp            18067                       # Transaction distribution
system.membus.trans_dist::ReadSharedReq        198630                       # Transaction distribution
system.membus.pkt_count_system.l2.mem_side::system.mem_ctrls.port       649065                       # Packet count per connected master and slave (bytes)
system.membus.pkt_count_system.l2.mem_side::total       649065                       # Packet count per connected master and slave (bytes)
system.membus.pkt_count::total                 649065                       # Packet count per connected master and slave (bytes)
system.membus.pkt_size_system.l2.mem_side::system.mem_ctrls.port     15430336                       # Cumulative packet size per connected master and slave (bytes)
system.membus.pkt_size_system.l2.mem_side::total     15430336                       # Cumulative packet size per connected master and slave (bytes)
system.membus.pkt_size::total                15430336                       # Cumulative packet size per connected master and slave (bytes)
system.membus.snoops                                0                       # Total snoops (count)
system.membus.snoopTraffic                          0                       # Total snoop traffic (bytes)
system.membus.snoop_fanout::samples            216697                       # Request fanout histogram
system.membus.snoop_fanout::mean                    0                       # Request fanout histogram
system.membus.snoop_fanout::stdev                   0                       # Request fanout histogram
system.membus.snoop_fanout::underflows              0      0.00%      0.00% # Request fanout histogram
system.membus.snoop_fanout::0                  216697    100.00%    100.00% # Request fanout histogram
system.membus.snoop_fanout::1                       0      0.00%    100.00% # Request fanout histogram
system.membus.snoop_fanout::overflows               0      0.00%    100.00% # Request fanout histogram
system.membus.snoop_fanout::min_value               0                       # Request fanout histogram
system.membus.snoop_fanout::max_value               0                       # Request fanout histogram
system.membus.snoop_fanout::total              216697                       # Request fanout histogram
system.membus.reqLayer4.occupancy           570871500                       # Layer occupancy (ticks)
system.membus.reqLayer4.utilization               2.8                       # Layer utilization (%)
system.membus.respLayer1.occupancy         1153904750                       # Layer occupancy (ticks)
system.membus.respLayer1.utilization              5.7                       # Layer utilization (%)
system.membus.power_state.pwrStateResidencyTicks::UNDEFINED  20173237000                       # Cumulative time (in ticks) in various power states
system.voltage_domain.voltage                       1                       # Voltage in Volts
system.clk_domain.clock                          1000                       # Clock period in ticks
system.cpu0.icache.demand_hits::.cpu0.inst      4692972                       # number of demand (read+write) hits
system.cpu0.icache.demand_hits::total         4692972                       # number of demand (read+write) hits
system.cpu0.icache.overall_hits::.cpu0.inst      4692972                       # number of overall hits
system.cpu0.icache.overall_hits::total        4692972                       # number of overall hits
system.cpu0.icache.demand_misses::.cpu0.inst        70729                       # number of demand (read+write) misses
system.cpu0.icache.demand_misses::total         70729                       # number of demand (read+write) misses
system.cpu0.icache.overall_misses::.cpu0.inst        70729                       # number of overall misses
system.cpu0.icache.overall_misses::total        70729                       # number of overall misses
system.cpu0.icache.demand_miss_latency::.cpu0.inst   1208195500                       # number of demand (read+write) miss cycles
system.cpu0.icache.demand_miss_latency::total   1208195500                       # number of demand (read+write) miss cycles
system.cpu0.icache.overall_miss_latency::.cpu0.inst   1208195500                       # number of overall miss cycles
system.cpu0.icache.overall_miss_latency::total   1208195500                       # number of overall miss cycles
system.cpu0.icache.demand_accesses::.cpu0.inst      4763701                       # number of demand (read+write) accesses
system.cpu0.icache.demand_accesses::total      4763701                       # number of demand (read+write) accesses
system.cpu0.icache.overall_accesses::.cpu0.inst      4763701                       # number of overall (read+write) accesses
system.cpu0.icache.overall_accesses::total      4763701                       # number of overall (read+write) accesses
system.cpu0.icache.demand_miss_rate::.cpu0.inst     0.014847                       # miss rate for demand accesses
system.cpu0.icache.demand_miss_rate::total     0.014847                       # miss rate for demand accesses
system.cpu0.icache.overall_miss_rate::.cpu0.inst     0.014847                       # miss rate for overall accesses
system.cpu0.icache.overall_miss_rate::total     0.014847                       # miss rate for overall accesses
system.cpu0.icache.demand_avg_miss_latency::.cpu0.inst 17082.038485                       # average overall miss latency
system.cpu0.icache.demand_avg_miss_latency::total 17082.038485                       # average overall miss latency
system.cpu0.icache.overall_avg_miss_latency::.cpu0.inst 17082.038485                       # average overall miss latency
system.cpu0.icache.overall_avg_miss_latency::total 17082.038485                       # average overall miss latency
system.cpu0.icache.blocked_cycles::no_mshrs            0                       # number of cycles access was blocked
system.cpu0.icache.blocked_cycles::no_targets            0                       # number of cycles access was blocked
system.cpu0.icache.blocked::no_mshrs                0                       # number of cycles access was blocked
system.cpu0.icache.blocked::no_targets              0                       # number of cycles access was blocked
system.cpu0.icache.avg_blocked_cycles::no_mshrs          nan                       # average number of cycles each access was blocked
system.cpu0.icache.avg_blocked_cycles::no_targets          nan                       # average number of cycles each access was blocked
system.cpu0.icache.writebacks::.writebacks        70713                       # number of writebacks
system.cpu0.icache.writebacks::total            70713                       # number of writebacks
system.cpu0.icache.demand_mshr_misses::.cpu0.inst        70729                       # number of demand (read+write) MSHR misses
system.cpu0.icache.demand_mshr_misses::total        70729                       # number of demand (read+write) MSHR misses
system.cpu0.icache.overall_mshr_misses::.cpu0.inst        70729                       # number of overall MSHR misses
system.cpu0.icache.overall_mshr_misses::total        70729                       # number of overall MSHR misses
system.cpu0.icache.demand_mshr_miss_latency::.cpu0.inst   1137466500                       # number of demand (read+write) MSHR miss cycles
system.cpu0.icache.demand_mshr_miss_latency::total   1137466500                       # number of demand (read+write) MSHR miss cycles
system.cpu0.icache.overall_mshr_miss_latency::.cpu0.inst   1137466500                       # number of overall MSHR miss cycles
system.cpu0.icache.overall_mshr_miss_latency::total   1137466500                       # number of overall MSHR miss cycles
system.cpu0.icache.demand_mshr_miss_rate::.cpu0.inst     0.014847                       # mshr miss rate for demand accesses
system.cpu0.icache.demand_mshr_miss_rate::total     0.014847                       # mshr miss rate for demand accesses
system.cpu0.icache.overall_mshr_miss_rate::.cpu0.inst     0.014847                       # mshr miss rate for overall accesses
system.cpu0.icache.overall_mshr_miss_rate::total     0.014847                       # mshr miss rate for overall accesses
system.cpu0.icache.demand_avg_mshr_miss_latency::.cpu0.inst 16082.038485                       # average overall mshr miss latency
system.cpu0.icache.demand_avg_mshr_miss_latency::total 16082.038485                       # average overall mshr miss latency
system.cpu0.icache.overall_avg_mshr_miss_latency::.cpu0.inst 16082.038485                       # average overall mshr miss latency
system.cpu0.icache.overall_avg_mshr_miss_latency::total 16082.038485                       # average overall mshr miss latency
system.cpu0.icache.replacements                 70713                       # number of replacements
system.cpu0.icache.ReadReq_hits::.cpu0.inst      4692972                       # number of ReadReq hits
system.cpu0.icache.ReadReq_hits::total        4692972                       # number of ReadReq hits
system.cpu0.icache.ReadReq_misses::.cpu0.inst        70729                       # number of ReadReq misses
system.cpu0.icache.ReadReq_misses::total        70729                       # number of ReadReq misses
system.cpu0.icache.ReadReq_miss_latency::.cpu0.inst   1208195500                       # number of ReadReq miss cycles
system.cpu0.icache.ReadReq_miss_latency::total   1208195500                       # number of ReadReq miss cycles
system.cpu0.icache.ReadReq_accesses::.cpu0.inst      4763701                       # number of ReadReq accesses(hits+misses)
system.cpu0.icache.ReadReq_accesses::total      4763701                       # number of ReadReq accesses(hits+misses)
system.cpu0.icache.ReadReq_miss_rate::.cpu0.inst     0.014847                       # miss rate for ReadReq accesses
system.cpu0.icache.ReadReq_miss_rate::total     0.014847                       # miss rate for ReadReq accesses
system.cpu0.icache.ReadReq_avg_miss_latency::.cpu0.inst 17082.038485                       # average ReadReq miss latency
system.cpu0.icache.ReadReq_avg_miss_latency::total 17082.038485                       # average ReadReq miss latency
system.cpu0.icache.ReadReq_mshr_misses::.cpu0.inst        70729                       # number of ReadReq MSHR misses
system.cpu0.icache.ReadReq_mshr_misses::total        70729                       # number of ReadReq MSHR misses
system.cpu0.icache.ReadReq_mshr_miss_latency::.cpu0.inst   1137466500                       # number of ReadReq MSHR miss cycles
system.cpu0.icache.ReadReq_mshr_miss_latency::total   1137466500                       # number of ReadReq MSHR miss cycles
system.cpu0.icache.ReadReq_mshr_miss_rate::.cpu0.inst     0.014847                       # mshr miss rate for ReadReq accesses
system.cpu0.icache.ReadReq_mshr_miss_rate::total     0.014847                       # mshr miss rate for ReadReq accesses
system.cpu0.icache.ReadReq_avg_mshr_miss_latency::.cpu0.inst 16082.038485                       # average ReadReq mshr miss latency
system.cpu0.icache.ReadReq_avg_mshr_miss_latency::total 16082.038485                       # average ReadReq mshr miss latency
system.cpu0.icache.power_state.pwrStateResidencyTicks::UNDEFINED  20173237000                       # Cumulative time (in ticks) in various power states
system.cpu0.icache.tags.tagsinuse           15.999322                       # Cycle average of tags in use
system.cpu0.icache.tags.total_refs            4763701                       # Total number of references to valid blocks.
system.cpu0.icache.tags.sampled_refs            70729                       # Sample count of references to valid blocks.
system.cpu0.icache.tags.avg_refs            67.351454                       # Average number of references to valid blocks.
system.cpu0.icache.tags.warmup_cycle            87500                       # Cycle when the warmup percentage was hit.
system.cpu0.icache.tags.occ_blocks::.cpu0.inst    15.999322                       # Average occupied blocks per requestor
system.cpu0.icache.tags.occ_percent::.cpu0.inst     0.999958                       # Average percentage of cache occupancy
system.cpu0.icache.tags.occ_percent::total     0.999958                       # Average percentage of cache occupancy
system.cpu0.icache.tags.occ_task_id_blocks::1024           16                       # Occupied blocks per task id
system.cpu0.icache.tags.age_task_id_blocks_1024::1           16                       # Occupied blocks per task id
system.cpu0.icache.tags.occ_task_id_percent::1024            1                       # Percentage of cache occupancy per task id
system.cpu0.icache.tags.tag_accesses         38180337                       # Number of tag accesses
system.cpu0.icache.tags.data_accesses        38180337                       # Number of data accesses
system.cpu0.icache.tags.power_state.pwrStateResidencyTicks::UNDEFINED  20173237000                       # Cumulative time (in ticks) in various power states
system.cpu0.dtb.walker.power_state.pwrStateResidencyTicks::UNDEFINED  20173237000                       # Cumulative time (in ticks) in various power states
system.cpu0.interrupts.clk_domain.clock          8000                       # Clock period in ticks
system.cpu0.itb_walker_cache.blocked_cycles::no_mshrs            0                       # number of cycles access was blocked
system.cpu0.itb_walker_cache.blocked_cycles::no_targets            0                       # number of cycles access was blocked
system.cpu0.itb_walker_cache.blocked::no_mshrs            0                       # number of cycles access was blocked
system.cpu0.itb_walker_cache.blocked::no_targets            0                       # number of cycles access was blocked
system.cpu0.itb_walker_cache.avg_blocked_cycles::no_mshrs          nan                       # average number of cycles each access was blocked
system.cpu0.itb_walker_cache.avg_blocked_cycles::no_targets          nan                       # average number of cycles each access was blocked
system.cpu0.itb_walker_cache.replacements            0                       # number of replacements
system.cpu0.itb_walker_cache.power_state.pwrStateResidencyTicks::UNDEFINED  20173237000                       # Cumulative time (in ticks) in various power states
system.cpu0.itb_walker_cache.tags.tagsinuse            0                       # Cycle average of tags in use
system.cpu0.itb_walker_cache.tags.total_refs            0                       # Total number of references to valid blocks.
system.cpu0.itb_walker_cache.tags.sampled_refs            0                       # Sample count of references to valid blocks.
system.cpu0.itb_walker_cache.tags.avg_refs          nan                       # Average number of references to valid blocks.
system.cpu0.itb_walker_cache.tags.warmup_cycle            0                       # Cycle when the warmup percentage was hit.
system.cpu0.itb_walker_cache.tags.tag_accesses            0                       # Number of tag accesses
system.cpu0.itb_walker_cache.tags.data_accesses            0                       # Number of data accesses
system.cpu0.itb_walker_cache.tags.power_state.pwrStateResidencyTicks::UNDEFINED  20173237000                       # Cumulative time (in ticks) in various power states
system.cpu0.dtb_walker_cache.blocked_cycles::no_mshrs            0                       # number of cycles access was blocked
system.cpu0.dtb_walker_cache.blocked_cycles::no_targets            0                       # number of cycles access was blocked
system.cpu0.dtb_walker_cache.blocked::no_mshrs            0                       # number of cycles access was blocked
system.cpu0.dtb_walker_cache.blocked::no_targets            0                       # number of cycles access was blocked
system.cpu0.dtb_walker_cache.avg_blocked_cycles::no_mshrs          nan                       # average number of cycles each access was blocked
system.cpu0.dtb_walker_cache.avg_blocked_cycles::no_targets          nan                       # average number of cycles each access was blocked
system.cpu0.dtb_walker_cache.replacements            0                       # number of replacements
system.cpu0.dtb_walker_cache.power_state.pwrStateResidencyTicks::UNDEFINED  20173237000                       # Cumulative time (in ticks) in various power states
system.cpu0.dtb_walker_cache.tags.tagsinuse            0                       # Cycle average of tags in use
system.cpu0.dtb_walker_cache.tags.total_refs            0                       # Total number of references to valid blocks.
system.cpu0.dtb_walker_cache.tags.sampled_refs            0                       # Sample count of references to valid blocks.
system.cpu0.dtb_walker_cache.tags.avg_refs          nan                       # Average number of references to valid blocks.
system.cpu0.dtb_walker_cache.tags.warmup_cycle            0                       # Cycle when the warmup percentage was hit.
system.cpu0.dtb_walker_cache.tags.tag_accesses            0                       # Number of tag accesses
system.cpu0.dtb_walker_cache.tags.data_accesses            0                       # Number of data accesses
system.cpu0.dtb_walker_cache.tags.power_state.pwrStateResidencyTicks::UNDEFINED  20173237000                       # Cumulative time (in ticks) in various power states
system.cpu0.dcache.demand_hits::.cpu0.data      1810388                       # number of demand (read+write) hits
system.cpu0.dcache.demand_hits::total         1810388                       # number of demand (read+write) hits
system.cpu0.dcache.overall_hits::.cpu0.data      1810445                       # number of overall hits
system.cpu0.dcache.overall_hits::total        1810445                       # number of overall hits
system.cpu0.dcache.demand_misses::.cpu0.data       290412                       # number of demand (read+write) misses
system.cpu0.dcache.demand_misses::total        290412                       # number of demand (read+write) misses
system.cpu0.dcache.overall_misses::.cpu0.data       290469                       # number of overall misses
system.cpu0.dcache.overall_misses::total       290469                       # number of overall misses
system.cpu0.dcache.demand_miss_latency::.cpu0.data   4933156000                       # number of demand (read+write) miss cycles
system.cpu0.dcache.demand_miss_latency::total   4933156000                       # number of demand (read+write) miss cycles
system.cpu0.dcache.overall_miss_latency::.cpu0.data   4933156000                       # number of overall miss cycles
system.cpu0.dcache.overall_miss_latency::total   4933156000                       # number of overall miss cycles
system.cpu0.dcache.demand_accesses::.cpu0.data      2100800                       # number of demand (read+write) accesses
system.cpu0.dcache.demand_accesses::total      2100800                       # number of demand (read+write) accesses
system.cpu0.dcache.overall_accesses::.cpu0.data      2100914                       # number of overall (read+write) accesses
system.cpu0.dcache.overall_accesses::total      2100914                       # number of overall (read+write) accesses
system.cpu0.dcache.demand_miss_rate::.cpu0.data     0.138239                       # miss rate for demand accesses
system.cpu0.dcache.demand_miss_rate::total     0.138239                       # miss rate for demand accesses
system.cpu0.dcache.overall_miss_rate::.cpu0.data     0.138258                       # miss rate for overall accesses
system.cpu0.dcache.overall_miss_rate::total     0.138258                       # miss rate for overall accesses
system.cpu0.dcache.demand_avg_miss_latency::.cpu0.data 16986.749859                       # average overall miss latency
system.cpu0.dcache.demand_avg_miss_latency::total 16986.749859                       # average overall miss latency
system.cpu0.dcache.overall_avg_miss_latency::.cpu0.data 16983.416475                       # average overall miss latency
system.cpu0.dcache.overall_avg_miss_latency::total 16983.416475                       # average overall miss latency
system.cpu0.dcache.blocked_cycles::no_mshrs            0                       # number of cycles access was blocked
system.cpu0.dcache.blocked_cycles::no_targets            0                       # number of cycles access was blocked
system.cpu0.dcache.blocked::no_mshrs                0                       # number of cycles access was blocked
system.cpu0.dcache.blocked::no_targets              0                       # number of cycles access was blocked
system.cpu0.dcache.avg_blocked_cycles::no_mshrs          nan                       # average number of cycles each access was blocked
system.cpu0.dcache.avg_blocked_cycles::no_targets          nan                       # average number of cycles each access was blocked
system.cpu0.dcache.writebacks::.writebacks       267501                       # number of writebacks
system.cpu0.dcache.writebacks::total           267501                       # number of writebacks
system.cpu0.dcache.demand_mshr_hits::.cpu0.data        10097                       # number of demand (read+write) MSHR hits
system.cpu0.dcache.demand_mshr_hits::total        10097                       # number of demand (read+write) MSHR hits
system.cpu0.dcache.overall_mshr_hits::.cpu0.data        10097                       # number of overall MSHR hits
system.cpu0.dcache.overall_mshr_hits::total        10097                       # number of overall MSHR hits
system.cpu0.dcache.demand_mshr_misses::.cpu0.data       280315                       # number of demand (read+write) MSHR misses
system.cpu0.dcache.demand_mshr_misses::total       280315                       # number of demand (read+write) MSHR misses
system.cpu0.dcache.overall_mshr_misses::.cpu0.data       280372                       # number of overall MSHR misses
system.cpu0.dcache.overall_mshr_misses::total       280372                       # number of overall MSHR misses
system.cpu0.dcache.demand_mshr_miss_latency::.cpu0.data   4196043500                       # number of demand (read+write) MSHR miss cycles
system.cpu0.dcache.demand_mshr_miss_latency::total   4196043500                       # number of demand (read+write) MSHR miss cycles
system.cpu0.dcache.overall_mshr_miss_latency::.cpu0.data   4196730500                       # number of overall MSHR miss cycles
system.cpu0.dcache.overall_mshr_miss_latency::total   4196730500                       # number of overall MSHR miss cycles
system.cpu0.dcache.demand_mshr_miss_rate::.cpu0.data     0.133433                       # mshr miss rate for demand accesses
system.cpu0.dcache.demand_mshr_miss_rate::total     0.133433                       # mshr miss rate for demand accesses
system.cpu0.dcache.overall_mshr_miss_rate::.cpu0.data     0.133452                       # mshr miss rate for overall accesses
system.cpu0.dcache.overall_mshr_miss_rate::total     0.133452                       # mshr miss rate for overall accesses
system.cpu0.dcache.demand_avg_mshr_miss_latency::.cpu0.data 14969.029485                       # average overall mshr miss latency
system.cpu0.dcache.demand_avg_mshr_miss_latency::total 14969.029485                       # average overall mshr miss latency
system.cpu0.dcache.overall_avg_mshr_miss_latency::.cpu0.data 14968.436577                       # average overall mshr miss latency
system.cpu0.dcache.overall_avg_mshr_miss_latency::total 14968.436577                       # average overall mshr miss latency
system.cpu0.dcache.replacements                280356                       # number of replacements
system.cpu0.dcache.ReadReq_hits::.cpu0.data      1192698                       # number of ReadReq hits
system.cpu0.dcache.ReadReq_hits::total        1192698                       # number of ReadReq hits
system.cpu0.dcache.ReadReq_misses::.cpu0.data       269890                       # number of ReadReq misses
system.cpu0.dcache.ReadReq_misses::total       269890                       # number of ReadReq misses
system.cpu0.dcache.ReadReq_miss_latency::.cpu0.data   3985280000                       # number of ReadReq miss cycles
system.cpu0.dcache.ReadReq_miss_latency::total   3985280000                       # number of ReadReq miss cycles
system.cpu0.dcache.ReadReq_accesses::.cpu0.data      1462588                       # number of ReadReq accesses(hits+misses)
system.cpu0.dcache.ReadReq_accesses::total      1462588                       # number of ReadReq accesses(hits+misses)
system.cpu0.dcache.ReadReq_miss_rate::.cpu0.data     0.184529                       # miss rate for ReadReq accesses
system.cpu0.dcache.ReadReq_miss_rate::total     0.184529                       # miss rate for ReadReq accesses
system.cpu0.dcache.ReadReq_avg_miss_latency::.cpu0.data 14766.312201                       # average ReadReq miss latency
system.cpu0.dcache.ReadReq_avg_miss_latency::total 14766.312201                       # average ReadReq miss latency
system.cpu0.dcache.ReadReq_mshr_hits::.cpu0.data         1463                       # number of ReadReq MSHR hits
system.cpu0.dcache.ReadReq_mshr_hits::total         1463                       # number of ReadReq MSHR hits
system.cpu0.dcache.ReadReq_mshr_misses::.cpu0.data       268427                       # number of ReadReq MSHR misses
system.cpu0.dcache.ReadReq_mshr_misses::total       268427                       # number of ReadReq MSHR misses
system.cpu0.dcache.ReadReq_mshr_miss_latency::.cpu0.data   3666753500                       # number of ReadReq MSHR miss cycles
system.cpu0.dcache.ReadReq_mshr_miss_latency::total   3666753500                       # number of ReadReq MSHR miss cycles
system.cpu0.dcache.ReadReq_mshr_miss_rate::.cpu0.data     0.183529                       # mshr miss rate for ReadReq accesses
system.cpu0.dcache.ReadReq_mshr_miss_rate::total     0.183529                       # mshr miss rate for ReadReq accesses
system.cpu0.dcache.ReadReq_avg_mshr_miss_latency::.cpu0.data 13660.151550                       # average ReadReq mshr miss latency
system.cpu0.dcache.ReadReq_avg_mshr_miss_latency::total 13660.151550                       # average ReadReq mshr miss latency
system.cpu0.dcache.WriteReq_hits::.cpu0.data       617690                       # number of WriteReq hits
system.cpu0.dcache.WriteReq_hits::total        617690                       # number of WriteReq hits
system.cpu0.dcache.WriteReq_misses::.cpu0.data        20522                       # number of WriteReq misses
system.cpu0.dcache.WriteReq_misses::total        20522                       # number of WriteReq misses
system.cpu0.dcache.WriteReq_miss_latency::.cpu0.data    947876000                       # number of WriteReq miss cycles
system.cpu0.dcache.WriteReq_miss_latency::total    947876000                       # number of WriteReq miss cycles
system.cpu0.dcache.WriteReq_accesses::.cpu0.data       638212                       # number of WriteReq accesses(hits+misses)
system.cpu0.dcache.WriteReq_accesses::total       638212                       # number of WriteReq accesses(hits+misses)
system.cpu0.dcache.WriteReq_miss_rate::.cpu0.data     0.032155                       # miss rate for WriteReq accesses
system.cpu0.dcache.WriteReq_miss_rate::total     0.032155                       # miss rate for WriteReq accesses
system.cpu0.dcache.WriteReq_avg_miss_latency::.cpu0.data 46188.285742                       # average WriteReq miss latency
system.cpu0.dcache.WriteReq_avg_miss_latency::total 46188.285742                       # average WriteReq miss latency
system.cpu0.dcache.WriteReq_mshr_hits::.cpu0.data         8634                       # number of WriteReq MSHR hits
system.cpu0.dcache.WriteReq_mshr_hits::total         8634                       # number of WriteReq MSHR hits
system.cpu0.dcache.WriteReq_mshr_misses::.cpu0.data        11888                       # number of WriteReq MSHR misses
system.cpu0.dcache.WriteReq_mshr_misses::total        11888                       # number of WriteReq MSHR misses
system.cpu0.dcache.WriteReq_mshr_miss_latency::.cpu0.data    529290000                       # number of WriteReq MSHR miss cycles
system.cpu0.dcache.WriteReq_mshr_miss_latency::total    529290000                       # number of WriteReq MSHR miss cycles
system.cpu0.dcache.WriteReq_mshr_miss_rate::.cpu0.data     0.018627                       # mshr miss rate for WriteReq accesses
system.cpu0.dcache.WriteReq_mshr_miss_rate::total     0.018627                       # mshr miss rate for WriteReq accesses
system.cpu0.dcache.WriteReq_avg_mshr_miss_latency::.cpu0.data 44523.048452                       # average WriteReq mshr miss latency
system.cpu0.dcache.WriteReq_avg_mshr_miss_latency::total 44523.048452                       # average WriteReq mshr miss latency
system.cpu0.dcache.SoftPFReq_hits::.cpu0.data           57                       # number of SoftPFReq hits
system.cpu0.dcache.SoftPFReq_hits::total           57                       # number of SoftPFReq hits
system.cpu0.dcache.SoftPFReq_misses::.cpu0.data           57                       # number of SoftPFReq misses
system.cpu0.dcache.SoftPFReq_misses::total           57                       # number of SoftPFReq misses
system.cpu0.dcache.SoftPFReq_accesses::.cpu0.data          114                       # number of SoftPFReq accesses(hits+misses)
system.cpu0.dcache.SoftPFReq_accesses::total          114                       # number of SoftPFReq accesses(hits+misses)
system.cpu0.dcache.SoftPFReq_miss_rate::.cpu0.data     0.500000                       # miss rate for SoftPFReq accesses
system.cpu0.dcache.SoftPFReq_miss_rate::total     0.500000                       # miss rate for SoftPFReq accesses
system.cpu0.dcache.SoftPFReq_mshr_misses::.cpu0.data           57                       # number of SoftPFReq MSHR misses
system.cpu0.dcache.SoftPFReq_mshr_misses::total           57                       # number of SoftPFReq MSHR misses
system.cpu0.dcache.SoftPFReq_mshr_miss_latency::.cpu0.data       687000                       # number of SoftPFReq MSHR miss cycles
system.cpu0.dcache.SoftPFReq_mshr_miss_latency::total       687000                       # number of SoftPFReq MSHR miss cycles
system.cpu0.dcache.SoftPFReq_mshr_miss_rate::.cpu0.data     0.500000                       # mshr miss rate for SoftPFReq accesses
system.cpu0.dcache.SoftPFReq_mshr_miss_rate::total     0.500000                       # mshr miss rate for SoftPFReq accesses
system.cpu0.dcache.SoftPFReq_avg_mshr_miss_latency::.cpu0.data 12052.631579                       # average SoftPFReq mshr miss latency
system.cpu0.dcache.SoftPFReq_avg_mshr_miss_latency::total 12052.631579                       # average SoftPFReq mshr miss latency
system.cpu0.dcache.power_state.pwrStateResidencyTicks::UNDEFINED  20173237000                       # Cumulative time (in ticks) in various power states
system.cpu0.dcache.tags.tagsinuse           15.999365                       # Cycle average of tags in use
system.cpu0.dcache.tags.total_refs            2090817                       # Total number of references to valid blocks.
system.cpu0.dcache.tags.sampled_refs           280372                       # Sample count of references to valid blocks.
system.cpu0.dcache.tags.avg_refs             7.457296                       # Average number of references to valid blocks.
system.cpu0.dcache.tags.warmup_cycle           178500                       # Cycle when the warmup percentage was hit.
system.cpu0.dcache.tags.occ_blocks::.cpu0.data    15.999365                       # Average occupied blocks per requestor
system.cpu0.dcache.tags.occ_percent::.cpu0.data     0.999960                       # Average percentage of cache occupancy
system.cpu0.dcache.tags.occ_percent::total     0.999960                       # Average percentage of cache occupancy
system.cpu0.dcache.tags.occ_task_id_blocks::1024           16                       # Occupied blocks per task id
system.cpu0.dcache.tags.age_task_id_blocks_1024::0           16                       # Occupied blocks per task id
system.cpu0.dcache.tags.occ_task_id_percent::1024            1                       # Percentage of cache occupancy per task id
system.cpu0.dcache.tags.tag_accesses         17087684                       # Number of tag accesses
system.cpu0.dcache.tags.data_accesses        17087684                       # Number of data accesses
system.cpu0.dcache.tags.power_state.pwrStateResidencyTicks::UNDEFINED  20173237000                       # Cumulative time (in ticks) in various power states
system.cpu0.power_state.pwrStateResidencyTicks::ON  20173237000                       # Cumulative time (in ticks) in various power states
system.cpu0.itb.walker.power_state.pwrStateResidencyTicks::UNDEFINED  20173237000                       # Cumulative time (in ticks) in various power states
system.cpu1.icache.demand_hits::.cpu1.inst       472135                       # number of demand (read+write) hits
system.cpu1.icache.demand_hits::total          472135                       # number of demand (read+write) hits
system.cpu1.icache.overall_hits::.cpu1.inst       472135                       # number of overall hits
system.cpu1.icache.overall_hits::total         472135                       # number of overall hits
system.cpu1.icache.demand_misses::.cpu1.inst       439725                       # number of demand (read+write) misses
system.cpu1.icache.demand_misses::total        439725                       # number of demand (read+write) misses
system.cpu1.icache.overall_misses::.cpu1.inst       439725                       # number of overall misses
system.cpu1.icache.overall_misses::total       439725                       # number of overall misses
system.cpu1.icache.demand_miss_latency::.cpu1.inst  15439408500                       # number of demand (read+write) miss cycles
system.cpu1.icache.demand_miss_latency::total  15439408500                       # number of demand (read+write) miss cycles
system.cpu1.icache.overall_miss_latency::.cpu1.inst  15439408500                       # number of overall miss cycles
system.cpu1.icache.overall_miss_latency::total  15439408500                       # number of overall miss cycles
system.cpu1.icache.demand_accesses::.cpu1.inst       911860                       # number of demand (read+write) accesses
system.cpu1.icache.demand_accesses::total       911860                       # number of demand (read+write) accesses
system.cpu1.icache.overall_accesses::.cpu1.inst       911860                       # number of overall (read+write) accesses
system.cpu1.icache.overall_accesses::total       911860                       # number of overall (read+write) accesses
system.cpu1.icache.demand_miss_rate::.cpu1.inst     0.482229                       # miss rate for demand accesses
system.cpu1.icache.demand_miss_rate::total     0.482229                       # miss rate for demand accesses
system.cpu1.icache.overall_miss_rate::.cpu1.inst     0.482229                       # miss rate for overall accesses
system.cpu1.icache.overall_miss_rate::total     0.482229                       # miss rate for overall accesses
system.cpu1.icache.demand_avg_miss_latency::.cpu1.inst 35111.509466                       # average overall miss latency
system.cpu1.icache.demand_avg_miss_latency::total 35111.509466                       # average overall miss latency
system.cpu1.icache.overall_avg_miss_latency::.cpu1.inst 35111.509466                       # average overall miss latency
system.cpu1.icache.overall_avg_miss_latency::total 35111.509466                       # average overall miss latency
system.cpu1.icache.blocked_cycles::no_mshrs            0                       # number of cycles access was blocked
system.cpu1.icache.blocked_cycles::no_targets            0                       # number of cycles access was blocked
system.cpu1.icache.blocked::no_mshrs                0                       # number of cycles access was blocked
system.cpu1.icache.blocked::no_targets              0                       # number of cycles access was blocked
system.cpu1.icache.avg_blocked_cycles::no_mshrs          nan                       # average number of cycles each access was blocked
system.cpu1.icache.avg_blocked_cycles::no_targets          nan                       # average number of cycles each access was blocked
system.cpu1.icache.writebacks::.writebacks       439708                       # number of writebacks
system.cpu1.icache.writebacks::total           439708                       # number of writebacks
system.cpu1.icache.demand_mshr_misses::.cpu1.inst       439725                       # number of demand (read+write) MSHR misses
system.cpu1.icache.demand_mshr_misses::total       439725                       # number of demand (read+write) MSHR misses
system.cpu1.icache.overall_mshr_misses::.cpu1.inst       439725                       # number of overall MSHR misses
system.cpu1.icache.overall_mshr_misses::total       439725                       # number of overall MSHR misses
system.cpu1.icache.demand_mshr_miss_latency::.cpu1.inst  14999684500                       # number of demand (read+write) MSHR miss cycles
system.cpu1.icache.demand_mshr_miss_latency::total  14999684500                       # number of demand (read+write) MSHR miss cycles
system.cpu1.icache.overall_mshr_miss_latency::.cpu1.inst  14999684500                       # number of overall MSHR miss cycles
system.cpu1.icache.overall_mshr_miss_latency::total  14999684500                       # number of overall MSHR miss cycles
system.cpu1.icache.demand_mshr_miss_rate::.cpu1.inst     0.482229                       # mshr miss rate for demand accesses
system.cpu1.icache.demand_mshr_miss_rate::total     0.482229                       # mshr miss rate for demand accesses
system.cpu1.icache.overall_mshr_miss_rate::.cpu1.inst     0.482229                       # mshr miss rate for overall accesses
system.cpu1.icache.overall_mshr_miss_rate::total     0.482229                       # mshr miss rate for overall accesses
system.cpu1.icache.demand_avg_mshr_miss_latency::.cpu1.inst 34111.511740                       # average overall mshr miss latency
system.cpu1.icache.demand_avg_mshr_miss_latency::total 34111.511740                       # average overall mshr miss latency
system.cpu1.icache.overall_avg_mshr_miss_latency::.cpu1.inst 34111.511740                       # average overall mshr miss latency
system.cpu1.icache.overall_avg_mshr_miss_latency::total 34111.511740                       # average overall mshr miss latency
system.cpu1.icache.replacements                439708                       # number of replacements
system.cpu1.icache.ReadReq_hits::.cpu1.inst       472135                       # number of ReadReq hits
system.cpu1.icache.ReadReq_hits::total         472135                       # number of ReadReq hits
system.cpu1.icache.ReadReq_misses::.cpu1.inst       439725                       # number of ReadReq misses
system.cpu1.icache.ReadReq_misses::total       439725                       # number of ReadReq misses
system.cpu1.icache.ReadReq_miss_latency::.cpu1.inst  15439408500                       # number of ReadReq miss cycles
system.cpu1.icache.ReadReq_miss_latency::total  15439408500                       # number of ReadReq miss cycles
system.cpu1.icache.ReadReq_accesses::.cpu1.inst       911860                       # number of ReadReq accesses(hits+misses)
system.cpu1.icache.ReadReq_accesses::total       911860                       # number of ReadReq accesses(hits+misses)
system.cpu1.icache.ReadReq_miss_rate::.cpu1.inst     0.482229                       # miss rate for ReadReq accesses
system.cpu1.icache.ReadReq_miss_rate::total     0.482229                       # miss rate for ReadReq accesses
system.cpu1.icache.ReadReq_avg_miss_latency::.cpu1.inst 35111.509466                       # average ReadReq miss latency
system.cpu1.icache.ReadReq_avg_miss_latency::total 35111.509466                       # average ReadReq miss latency
system.cpu1.icache.ReadReq_mshr_misses::.cpu1.inst       439725                       # number of ReadReq MSHR misses
system.cpu1.icache.ReadReq_mshr_misses::total       439725                       # number of ReadReq MSHR misses
system.cpu1.icache.ReadReq_mshr_miss_latency::.cpu1.inst  14999684500                       # number of ReadReq MSHR miss cycles
system.cpu1.icache.ReadReq_mshr_miss_latency::total  14999684500                       # number of ReadReq MSHR miss cycles
system.cpu1.icache.ReadReq_mshr_miss_rate::.cpu1.inst     0.482229                       # mshr miss rate for ReadReq accesses
system.cpu1.icache.ReadReq_mshr_miss_rate::total     0.482229                       # mshr miss rate for ReadReq accesses
system.cpu1.icache.ReadReq_avg_mshr_miss_latency::.cpu1.inst 34111.511740                       # average ReadReq mshr miss latency
system.cpu1.icache.ReadReq_avg_mshr_miss_latency::total 34111.511740                       # average ReadReq mshr miss latency
system.cpu1.icache.power_state.pwrStateResidencyTicks::UNDEFINED  20173237000                       # Cumulative time (in ticks) in various power states
system.cpu1.icache.tags.tagsinuse           15.999289                       # Cycle average of tags in use
system.cpu1.icache.tags.total_refs             911859                       # Total number of references to valid blocks.
system.cpu1.icache.tags.sampled_refs           439724                       # Sample count of references to valid blocks.
system.cpu1.icache.tags.avg_refs             2.073708                       # Average number of references to valid blocks.
system.cpu1.icache.tags.warmup_cycle            92500                       # Cycle when the warmup percentage was hit.
system.cpu1.icache.tags.occ_blocks::.cpu1.inst    15.999289                       # Average occupied blocks per requestor
system.cpu1.icache.tags.occ_percent::.cpu1.inst     0.999956                       # Average percentage of cache occupancy
system.cpu1.icache.tags.occ_percent::total     0.999956                       # Average percentage of cache occupancy
system.cpu1.icache.tags.occ_task_id_blocks::1024           16                       # Occupied blocks per task id
system.cpu1.icache.tags.age_task_id_blocks_1024::0           16                       # Occupied blocks per task id
system.cpu1.icache.tags.occ_task_id_percent::1024            1                       # Percentage of cache occupancy per task id
system.cpu1.icache.tags.tag_accesses          7734604                       # Number of tag accesses
system.cpu1.icache.tags.data_accesses         7734604                       # Number of data accesses
system.cpu1.icache.tags.power_state.pwrStateResidencyTicks::UNDEFINED  20173237000                       # Cumulative time (in ticks) in various power states
system.cpu1.dtb.walker.power_state.pwrStateResidencyTicks::UNDEFINED  20173237000                       # Cumulative time (in ticks) in various power states
system.cpu1.interrupts.clk_domain.clock          8000                       # Clock period in ticks
system.cpu1.itb_walker_cache.blocked_cycles::no_mshrs            0                       # number of cycles access was blocked
system.cpu1.itb_walker_cache.blocked_cycles::no_targets            0                       # number of cycles access was blocked
system.cpu1.itb_walker_cache.blocked::no_mshrs            0                       # number of cycles access was blocked
system.cpu1.itb_walker_cache.blocked::no_targets            0                       # number of cycles access was blocked
system.cpu1.itb_walker_cache.avg_blocked_cycles::no_mshrs          nan                       # average number of cycles each access was blocked
system.cpu1.itb_walker_cache.avg_blocked_cycles::no_targets          nan                       # average number of cycles each access was blocked
system.cpu1.itb_walker_cache.replacements            0                       # number of replacements
system.cpu1.itb_walker_cache.power_state.pwrStateResidencyTicks::UNDEFINED  20173237000                       # Cumulative time (in ticks) in various power states
system.cpu1.itb_walker_cache.tags.tagsinuse            0                       # Cycle average of tags in use
system.cpu1.itb_walker_cache.tags.total_refs            0                       # Total number of references to valid blocks.
system.cpu1.itb_walker_cache.tags.sampled_refs            0                       # Sample count of references to valid blocks.
system.cpu1.itb_walker_cache.tags.avg_refs          nan                       # Average number of references to valid blocks.
system.cpu1.itb_walker_cache.tags.warmup_cycle            0                       # Cycle when the warmup percentage was hit.
system.cpu1.itb_walker_cache.tags.tag_accesses            0                       # Number of tag accesses
system.cpu1.itb_walker_cache.tags.data_accesses            0                       # Number of data accesses
system.cpu1.itb_walker_cache.tags.power_state.pwrStateResidencyTicks::UNDEFINED  20173237000                       # Cumulative time (in ticks) in various power states
system.cpu1.dtb_walker_cache.blocked_cycles::no_mshrs            0                       # number of cycles access was blocked
system.cpu1.dtb_walker_cache.blocked_cycles::no_targets            0                       # number of cycles access was blocked
system.cpu1.dtb_walker_cache.blocked::no_mshrs            0                       # number of cycles access was blocked
system.cpu1.dtb_walker_cache.blocked::no_targets            0                       # number of cycles access was blocked
system.cpu1.dtb_walker_cache.avg_blocked_cycles::no_mshrs          nan                       # average number of cycles each access was blocked
system.cpu1.dtb_walker_cache.avg_blocked_cycles::no_targets          nan                       # average number of cycles each access was blocked
system.cpu1.dtb_walker_cache.replacements            0                       # number of replacements
system.cpu1.dtb_walker_cache.power_state.pwrStateResidencyTicks::UNDEFINED  20173237000                       # Cumulative time (in ticks) in various power states
system.cpu1.dtb_walker_cache.tags.tagsinuse            0                       # Cycle average of tags in use
system.cpu1.dtb_walker_cache.tags.total_refs            0                       # Total number of references to valid blocks.
system.cpu1.dtb_walker_cache.tags.sampled_refs            0                       # Sample count of references to valid blocks.
system.cpu1.dtb_walker_cache.tags.avg_refs          nan                       # Average number of references to valid blocks.
system.cpu1.dtb_walker_cache.tags.warmup_cycle            0                       # Cycle when the warmup percentage was hit.
system.cpu1.dtb_walker_cache.tags.tag_accesses            0                       # Number of tag accesses
system.cpu1.dtb_walker_cache.tags.data_accesses            0                       # Number of data accesses
system.cpu1.dtb_walker_cache.tags.power_state.pwrStateResidencyTicks::UNDEFINED  20173237000                       # Cumulative time (in ticks) in various power states
system.cpu1.dcache.demand_hits::.cpu1.data       933519                       # number of demand (read+write) hits
system.cpu1.dcache.demand_hits::total          933519                       # number of demand (read+write) hits
system.cpu1.dcache.overall_hits::.cpu1.data       933519                       # number of overall hits
system.cpu1.dcache.overall_hits::total         933519                       # number of overall hits
system.cpu1.dcache.demand_misses::.cpu1.data       201205                       # number of demand (read+write) misses
system.cpu1.dcache.demand_misses::total        201205                       # number of demand (read+write) misses
system.cpu1.dcache.overall_misses::.cpu1.data       201205                       # number of overall misses
system.cpu1.dcache.overall_misses::total       201205                       # number of overall misses
system.cpu1.dcache.demand_miss_latency::.cpu1.data   7007090500                       # number of demand (read+write) miss cycles
system.cpu1.dcache.demand_miss_latency::total   7007090500                       # number of demand (read+write) miss cycles
system.cpu1.dcache.overall_miss_latency::.cpu1.data   7007090500                       # number of overall miss cycles
system.cpu1.dcache.overall_miss_latency::total   7007090500                       # number of overall miss cycles
system.cpu1.dcache.demand_accesses::.cpu1.data      1134724                       # number of demand (read+write) accesses
system.cpu1.dcache.demand_accesses::total      1134724                       # number of demand (read+write) accesses
system.cpu1.dcache.overall_accesses::.cpu1.data      1134724                       # number of overall (read+write) accesses
system.cpu1.dcache.overall_accesses::total      1134724                       # number of overall (read+write) accesses
system.cpu1.dcache.demand_miss_rate::.cpu1.data     0.177316                       # miss rate for demand accesses
system.cpu1.dcache.demand_miss_rate::total     0.177316                       # miss rate for demand accesses
system.cpu1.dcache.overall_miss_rate::.cpu1.data     0.177316                       # miss rate for overall accesses
system.cpu1.dcache.overall_miss_rate::total     0.177316                       # miss rate for overall accesses
system.cpu1.dcache.demand_avg_miss_latency::.cpu1.data 34825.628091                       # average overall miss latency
system.cpu1.dcache.demand_avg_miss_latency::total 34825.628091                       # average overall miss latency
system.cpu1.dcache.overall_avg_miss_latency::.cpu1.data 34825.628091                       # average overall miss latency
system.cpu1.dcache.overall_avg_miss_latency::total 34825.628091                       # average overall miss latency
system.cpu1.dcache.blocked_cycles::no_mshrs            0                       # number of cycles access was blocked
system.cpu1.dcache.blocked_cycles::no_targets            0                       # number of cycles access was blocked
system.cpu1.dcache.blocked::no_mshrs                0                       # number of cycles access was blocked
system.cpu1.dcache.blocked::no_targets              0                       # number of cycles access was blocked
system.cpu1.dcache.avg_blocked_cycles::no_mshrs          nan                       # average number of cycles each access was blocked
system.cpu1.dcache.avg_blocked_cycles::no_targets          nan                       # average number of cycles each access was blocked
system.cpu1.dcache.writebacks::.writebacks       116591                       # number of writebacks
system.cpu1.dcache.writebacks::total           116591                       # number of writebacks
system.cpu1.dcache.demand_mshr_hits::.cpu1.data        23942                       # number of demand (read+write) MSHR hits
system.cpu1.dcache.demand_mshr_hits::total        23942                       # number of demand (read+write) MSHR hits
system.cpu1.dcache.overall_mshr_hits::.cpu1.data        23942                       # number of overall MSHR hits
system.cpu1.dcache.overall_mshr_hits::total        23942                       # number of overall MSHR hits
system.cpu1.dcache.demand_mshr_misses::.cpu1.data       177263                       # number of demand (read+write) MSHR misses
system.cpu1.dcache.demand_mshr_misses::total       177263                       # number of demand (read+write) MSHR misses
system.cpu1.dcache.overall_mshr_misses::.cpu1.data       177263                       # number of overall MSHR misses
system.cpu1.dcache.overall_mshr_misses::total       177263                       # number of overall MSHR misses
system.cpu1.dcache.demand_mshr_miss_latency::.cpu1.data   5987369000                       # number of demand (read+write) MSHR miss cycles
system.cpu1.dcache.demand_mshr_miss_latency::total   5987369000                       # number of demand (read+write) MSHR miss cycles
system.cpu1.dcache.overall_mshr_miss_latency::.cpu1.data   5987369000                       # number of overall MSHR miss cycles
system.cpu1.dcache.overall_mshr_miss_latency::total   5987369000                       # number of overall MSHR miss cycles
system.cpu1.dcache.demand_mshr_miss_rate::.cpu1.data     0.156217                       # mshr miss rate for demand accesses
system.cpu1.dcache.demand_mshr_miss_rate::total     0.156217                       # mshr miss rate for demand accesses
system.cpu1.dcache.overall_mshr_miss_rate::.cpu1.data     0.156217                       # mshr miss rate for overall accesses
system.cpu1.dcache.overall_mshr_miss_rate::total     0.156217                       # mshr miss rate for overall accesses
system.cpu1.dcache.demand_avg_mshr_miss_latency::.cpu1.data 33776.755442                       # average overall mshr miss latency
system.cpu1.dcache.demand_avg_mshr_miss_latency::total 33776.755442                       # average overall mshr miss latency
system.cpu1.dcache.overall_avg_mshr_miss_latency::.cpu1.data 33776.755442                       # average overall mshr miss latency
system.cpu1.dcache.overall_avg_mshr_miss_latency::total 33776.755442                       # average overall mshr miss latency
system.cpu1.dcache.replacements                177247                       # number of replacements
system.cpu1.dcache.ReadReq_hits::.cpu1.data       544751                       # number of ReadReq hits
system.cpu1.dcache.ReadReq_hits::total         544751                       # number of ReadReq hits
system.cpu1.dcache.ReadReq_misses::.cpu1.data       130180                       # number of ReadReq misses
system.cpu1.dcache.ReadReq_misses::total       130180                       # number of ReadReq misses
system.cpu1.dcache.ReadReq_miss_latency::.cpu1.data   4814956500                       # number of ReadReq miss cycles
system.cpu1.dcache.ReadReq_miss_latency::total   4814956500                       # number of ReadReq miss cycles
system.cpu1.dcache.ReadReq_accesses::.cpu1.data       674931                       # number of ReadReq accesses(hits+misses)
system.cpu1.dcache.ReadReq_accesses::total       674931                       # number of ReadReq accesses(hits+misses)
system.cpu1.dcache.ReadReq_miss_rate::.cpu1.data     0.192879                       # miss rate for ReadReq accesses
system.cpu1.dcache.ReadReq_miss_rate::total     0.192879                       # miss rate for ReadReq accesses
system.cpu1.dcache.ReadReq_avg_miss_latency::.cpu1.data 36986.914273                       # average ReadReq miss latency
system.cpu1.dcache.ReadReq_avg_miss_latency::total 36986.914273                       # average ReadReq miss latency
system.cpu1.dcache.ReadReq_mshr_hits::.cpu1.data         5074                       # number of ReadReq MSHR hits
system.cpu1.dcache.ReadReq_mshr_hits::total         5074                       # number of ReadReq MSHR hits
[...]
system.mem_ctrls.bytesPerActivate::512-639         2504      4.41%     88.17% # Bytes accessed per row activation
system.mem_ctrls.bytesPerActivate::640-767         2009      3.54%     91.72% # Bytes accessed per row activation
system.mem_ctrls.bytesPerActivate::768-895         1649      2.91%     94.62% # Bytes accessed per row activation
system.mem_ctrls.bytesPerActivate::896-1023          600      1.06%     95.68% # Bytes accessed per row activation
system.mem_ctrls.bytesPerActivate::1024-1151         2449      4.32%    100.00% # Bytes accessed per row activation
system.mem_ctrls.bytesPerActivate::total        56717                       # Bytes accessed per row activation
system.mem_ctrls.rdPerTurnAround::samples         1155                       # Reads before turning the bus around for writes
system.mem_ctrls.rdPerTurnAround::mean     181.138528                       # Reads before turning the bus around for writes
system.mem_ctrls.rdPerTurnAround::gmean    144.870828                       # Reads before turning the bus around for writes
system.mem_ctrls.rdPerTurnAround::stdev    103.520047                       # Reads before turning the bus around for writes
system.mem_ctrls.rdPerTurnAround::0-31             25      2.16%      2.16% # Reads before turning the bus around for writes
system.mem_ctrls.rdPerTurnAround::32-63           209     18.10%     20.26% # Reads before turning the bus around for writes
system.mem_ctrls.rdPerTurnAround::64-95            99      8.57%     28.83% # Reads before turning the bus around for writes
system.mem_ctrls.rdPerTurnAround::96-127           87      7.53%     36.36% # Reads before turning the bus around for writes
system.mem_ctrls.rdPerTurnAround::128-159           81      7.01%     43.38% # Reads before turning the bus around for writes
system.mem_ctrls.rdPerTurnAround::160-191           71      6.15%     49.52% # Reads before turning the bus around for writes
system.mem_ctrls.rdPerTurnAround::192-223           97      8.40%     57.92% # Reads before turning the bus around for writes
system.mem_ctrls.rdPerTurnAround::224-255          175     15.15%     73.07% # Reads before turning the bus around for writes
system.mem_ctrls.rdPerTurnAround::256-287          124     10.74%     83.81% # Reads before turning the bus around for writes
system.mem_ctrls.rdPerTurnAround::288-319          100      8.66%     92.47% # Reads before turning the bus around for writes
system.mem_ctrls.rdPerTurnAround::320-351           58      5.02%     97.49% # Reads before turning the bus around for writes
system.mem_ctrls.rdPerTurnAround::352-383           19      1.65%     99.13% # Reads before turning the bus around for writes
system.mem_ctrls.rdPerTurnAround::384-415            7      0.61%     99.74% # Reads before turning the bus around for writes
system.mem_ctrls.rdPerTurnAround::416-447            1      0.09%     99.83% # Reads before turning the bus around for writes
system.mem_ctrls.rdPerTurnAround::640-671            1      0.09%     99.91% # Reads before turning the bus around for writes
system.mem_ctrls.rdPerTurnAround::960-991            1      0.09%    100.00% # Reads before turning the bus around for writes
system.mem_ctrls.rdPerTurnAround::total          1155                       # Reads before turning the bus around for writes
system.mem_ctrls.wrPerTurnAround::samples         1155                       # Writes before turning the bus around for reads
system.mem_ctrls.wrPerTurnAround::mean      16.610390                       # Writes before turning the bus around for reads
system.mem_ctrls.wrPerTurnAround::gmean     16.584774                       # Writes before turning the bus around for reads
system.mem_ctrls.wrPerTurnAround::stdev      0.939539                       # Writes before turning the bus around for reads
system.mem_ctrls.wrPerTurnAround::16              798     69.09%     69.09% # Writes before turning the bus around for reads
system.mem_ctrls.wrPerTurnAround::17               32      2.77%     71.86% # Writes before turning the bus around for reads
system.mem_ctrls.wrPerTurnAround::18              303     26.23%     98.10% # Writes before turning the bus around for reads
system.mem_ctrls.wrPerTurnAround::19               21      1.82%     99.91% # Writes before turning the bus around for reads
system.mem_ctrls.wrPerTurnAround::20                1      0.09%    100.00% # Writes before turning the bus around for reads
system.mem_ctrls.wrPerTurnAround::total          1155                       # Writes before turning the bus around for reads
system.mem_ctrls.bytesReadDRAM               13404608                       # Total number of bytes read from DRAM
system.mem_ctrls.bytesReadWrQ                  464000                       # Total number of bytes read from write queue
system.mem_ctrls.bytesWritten                 1227840                       # Total number of bytes written to DRAM
system.mem_ctrls.bytesReadSys                13868608                       # Total read bytes from the system interface side
system.mem_ctrls.bytesWrittenSys              1561792                       # Total written bytes from the system interface side
system.mem_ctrls.avgRdBW                       664.47                       # Average DRAM read bandwidth in MiByte/s
system.mem_ctrls.avgWrBW                        60.86                       # Average achieved write bandwidth in MiByte/s
system.mem_ctrls.avgRdBWSys                    687.48                       # Average system read bandwidth in MiByte/s
system.mem_ctrls.avgWrBWSys                     77.42                       # Average system write bandwidth in MiByte/s
system.mem_ctrls.peakBW                      12800.00                       # Theoretical peak bandwidth in MiByte/s
system.mem_ctrls.busUtil                         5.67                       # Data bus utilization in percentage
system.mem_ctrls.busUtilRead                     5.19                       # Data bus utilization in percentage for reads
system.mem_ctrls.busUtilWrite                    0.48                       # Data bus utilization in percentage for writes
system.mem_ctrls.totGap                   20173206000                       # Total gap between requests
system.mem_ctrls.avgGap                      83671.53                       # Average gap between requests
system.mem_ctrls.masterReadBytes::.cpu0.inst       207552                       # Per-master bytes read from memory
system.mem_ctrls.masterReadBytes::.cpu0.data       685568                       # Per-master bytes read from memory
system.mem_ctrls.masterReadBytes::.cpu1.inst      9392192                       # Per-master bytes read from memory
system.mem_ctrls.masterReadBytes::.cpu1.data      3119296                       # Per-master bytes read from memory
system.mem_ctrls.masterWriteBytes::.writebacks      1227840                       # Per-master bytes write to memory
system.mem_ctrls.masterReadRate::.cpu0.inst 10288482.706072406843                       # Per-master bytes read from memory rate (Bytes/sec)
system.mem_ctrls.masterReadRate::.cpu0.data 33984035.383116751909                       # Per-master bytes read from memory rate (Bytes/sec)
system.mem_ctrls.masterReadRate::.cpu1.inst 465576843.220550060272                       # Per-master bytes read from memory rate (Bytes/sec)
system.mem_ctrls.masterReadRate::.cpu1.data 154625457.481117188931                       # Per-master bytes read from memory rate (Bytes/sec)
system.mem_ctrls.masterWriteRate::.writebacks 60864798.247301608324                       # Per-master bytes write to memory rate (Bytes/sec)
system.mem_ctrls.masterReadAccesses::.cpu0.inst         3243                       # Per-master read serviced memory accesses
system.mem_ctrls.masterReadAccesses::.cpu0.data        12130                       # Per-master read serviced memory accesses
system.mem_ctrls.masterReadAccesses::.cpu1.inst       146753                       # Per-master read serviced memory accesses
system.mem_ctrls.masterReadAccesses::.cpu1.data        54571                       # Per-master read serviced memory accesses
system.mem_ctrls.masterWriteAccesses::.writebacks        24403                       # Per-master write serviced memory accesses
system.mem_ctrls.masterReadTotalLat::.cpu0.inst    102422750                       # Per-master read total memory access latency
system.mem_ctrls.masterReadTotalLat::.cpu0.data    337448500                       # Per-master read total memory access latency
system.mem_ctrls.masterReadTotalLat::.cpu1.inst   3735993500                       # Per-master read total memory access latency
system.mem_ctrls.masterReadTotalLat::.cpu1.data   1618687750                       # Per-master read total memory access latency
system.mem_ctrls.masterWriteTotalLat::.writebacks 493465095750                       # Per-master write total memory access latency
system.mem_ctrls.masterReadAvgLat::.cpu0.inst     31582.72                       # Per-master read average memory access latency
system.mem_ctrls.masterReadAvgLat::.cpu0.data     27819.33                       # Per-master read average memory access latency
system.mem_ctrls.masterReadAvgLat::.cpu1.inst     25457.70                       # Per-master read average memory access latency
system.mem_ctrls.masterReadAvgLat::.cpu1.data     29662.05                       # Per-master read average memory access latency
system.mem_ctrls.masterWriteAvgLat::.writebacks  20221493.08                       # Per-master write average memory access latency
system.mem_ctrls.pageHitRate                    75.18                       # Row buffer hit rate, read and write combined
system.mem_ctrls.rank1.actEnergy            169046640                       # Energy for activate commands per rank (pJ)
system.mem_ctrls.rank1.preEnergy             89823855                       # Energy for precharge commands per rank (pJ)
system.mem_ctrls.rank1.readEnergy           423237780                       # Energy for read commands per rank (pJ)
system.mem_ctrls.rank1.writeEnergy           51437880                       # Energy for write commands per rank (pJ)
system.mem_ctrls.rank1.refreshEnergy     1591917600.000000                       # Energy for refresh commands per rank (pJ)
system.mem_ctrls.rank1.actBackEnergy       8518729800                       # Energy for active background per rank (pJ)
system.mem_ctrls.rank1.preBackEnergy        572856000                       # Energy for precharge background per rank (pJ)
system.mem_ctrls.rank1.actPowerDownEnergy            0                       # Energy for active power-down per rank (pJ)
system.mem_ctrls.rank1.prePowerDownEnergy            0                       # Energy for precharge power-down per rank (pJ)
system.mem_ctrls.rank1.selfRefreshEnergy            0                       # Energy for self refresh per rank (pJ)
system.mem_ctrls.rank1.totalEnergy        11417049555                       # Total energy per rank (pJ)
system.mem_ctrls.rank1.averagePower        565.950301                       # Core power per rank (mW)
system.mem_ctrls.rank1.totalIdleTime                0                       # Total Idle time Per DRAM Rank
system.mem_ctrls.rank1.memoryStateTime::IDLE   1418540250                       # Time in different power states
system.mem_ctrls.rank1.memoryStateTime::REF    673400000                       # Time in different power states
system.mem_ctrls.rank1.memoryStateTime::SREF            0                       # Time in different power states
system.mem_ctrls.rank1.memoryStateTime::PRE_PDN            0                       # Time in different power states
system.mem_ctrls.rank1.memoryStateTime::ACT  18081296750                       # Time in different power states
system.mem_ctrls.rank1.memoryStateTime::ACT_PDN            0                       # Time in different power states
system.mem_ctrls.rank0.actEnergy            236005560                       # Energy for activate commands per rank (pJ)
system.mem_ctrls.rank0.preEnergy            125417160                       # Energy for precharge commands per rank (pJ)
system.mem_ctrls.rank0.readEnergy          1072206660                       # Energy for read commands per rank (pJ)
system.mem_ctrls.rank0.writeEnergy           48707820                       # Energy for write commands per rank (pJ)
system.mem_ctrls.rank0.refreshEnergy     1591917600.000000                       # Energy for refresh commands per rank (pJ)
system.mem_ctrls.rank0.actBackEnergy       9090733350                       # Energy for active background per rank (pJ)
system.mem_ctrls.rank0.preBackEnergy         91168800                       # Energy for precharge background per rank (pJ)
system.mem_ctrls.rank0.actPowerDownEnergy            0                       # Energy for active power-down per rank (pJ)
system.mem_ctrls.rank0.prePowerDownEnergy            0                       # Energy for precharge power-down per rank (pJ)
system.mem_ctrls.rank0.selfRefreshEnergy            0                       # Energy for self refresh per rank (pJ)
system.mem_ctrls.rank0.totalEnergy        12256156950                       # Total energy per rank (pJ)
system.mem_ctrls.rank0.averagePower        607.545381                       # Core power per rank (mW)
system.mem_ctrls.rank0.totalIdleTime                0                       # Total Idle time Per DRAM Rank
system.mem_ctrls.rank0.memoryStateTime::IDLE    164163500                       # Time in different power states
system.mem_ctrls.rank0.memoryStateTime::REF    673400000                       # Time in different power states
system.mem_ctrls.rank0.memoryStateTime::SREF            0                       # Time in different power states
system.mem_ctrls.rank0.memoryStateTime::PRE_PDN            0                       # Time in different power states
system.mem_ctrls.rank0.memoryStateTime::ACT  19335673500                       # Time in different power states
system.mem_ctrls.rank0.memoryStateTime::ACT_PDN            0                       # Time in different power states
system.mem_ctrls.power_state.pwrStateResidencyTicks::UNDEFINED  20173237000                       # Cumulative time (in ticks) in various power states
system.cpu_clk_domain.clock                       500                       # Clock period in ticks
system.tol2bus.trans_dist::ReadResp            904043                       # Transaction distribution
system.tol2bus.trans_dist::WritebackDirty       408495                       # Transaction distribution
system.tol2bus.trans_dist::WritebackClean       510421                       # Transaction distribution
system.tol2bus.trans_dist::CleanEvict          266924                       # Transaction distribution
system.tol2bus.trans_dist::ReadExReq            64045                       # Transaction distribution
system.tol2bus.trans_dist::ReadExResp           64045                       # Transaction distribution
system.tol2bus.trans_dist::ReadCleanReq        510454                       # Transaction distribution
system.tol2bus.trans_dist::ReadSharedReq       393590                       # Transaction distribution
system.tol2bus.pkt_count_system.cpu0.icache.mem_side::system.l2.cpu_side       212171                       # Packet count per connected master and slave (bytes)
system.tol2bus.pkt_count_system.cpu0.dcache.mem_side::system.l2.cpu_side       841100                       # Packet count per connected master and slave (bytes)
system.tol2bus.pkt_count_system.cpu1.icache.mem_side::system.l2.cpu_side      1319157                       # Packet count per connected master and slave (bytes)
system.tol2bus.pkt_count_system.cpu1.dcache.mem_side::system.l2.cpu_side       531773                       # Packet count per connected master and slave (bytes)
system.tol2bus.pkt_count::total               2904201                       # Packet count per connected master and slave (bytes)
system.tol2bus.pkt_size_system.cpu0.icache.mem_side::system.l2.cpu_side      9052288                       # Cumulative packet size per connected master and slave (bytes)
system.tol2bus.pkt_size_system.cpu0.dcache.mem_side::system.l2.cpu_side     35063872                       # Cumulative packet size per connected master and slave (bytes)
system.tol2bus.pkt_size_system.cpu1.icache.mem_side::system.l2.cpu_side     56283648                       # Cumulative packet size per connected master and slave (bytes)
system.tol2bus.pkt_size_system.cpu1.dcache.mem_side::system.l2.cpu_side     18806656                       # Cumulative packet size per connected master and slave (bytes)
system.tol2bus.pkt_size::total              119206464                       # Cumulative packet size per connected master and slave (bytes)
system.tol2bus.snoops                          217816                       # Total snoops (count)
system.tol2bus.snoopTraffic                   1561792                       # Total snoop traffic (bytes)
system.tol2bus.snoop_fanout::samples          1185905                       # Request fanout histogram
system.tol2bus.snoop_fanout::mean            0.010858                       # Request fanout histogram
system.tol2bus.snoop_fanout::stdev           0.103636                       # Request fanout histogram
system.tol2bus.snoop_fanout::underflows             0      0.00%      0.00% # Request fanout histogram
system.tol2bus.snoop_fanout::0                1173028     98.91%     98.91% # Request fanout histogram
system.tol2bus.snoop_fanout::1                  12877      1.09%    100.00% # Request fanout histogram
system.tol2bus.snoop_fanout::2                      0      0.00%    100.00% # Request fanout histogram
system.tol2bus.snoop_fanout::3                      0      0.00%    100.00% # Request fanout histogram
system.tol2bus.snoop_fanout::4                      0      0.00%    100.00% # Request fanout histogram
system.tol2bus.snoop_fanout::5                      0      0.00%    100.00% # Request fanout histogram
system.tol2bus.snoop_fanout::6                      0      0.00%    100.00% # Request fanout histogram
system.tol2bus.snoop_fanout::7                      0      0.00%    100.00% # Request fanout histogram
system.tol2bus.snoop_fanout::8                      0      0.00%    100.00% # Request fanout histogram
system.tol2bus.snoop_fanout::overflows              0      0.00%    100.00% # Request fanout histogram
system.tol2bus.snoop_fanout::min_value              0                       # Request fanout histogram
system.tol2bus.snoop_fanout::max_value              1                       # Request fanout histogram
system.tol2bus.snoop_fanout::total            1185905                       # Request fanout histogram
system.tol2bus.reqLayer0.occupancy         1862569500                       # Layer occupancy (ticks)
system.tol2bus.reqLayer0.utilization              9.2                       # Layer utilization (%)
system.tol2bus.respLayer5.occupancy         266134519                       # Layer occupancy (ticks)
system.tol2bus.respLayer5.utilization             1.3                       # Layer utilization (%)
system.tol2bus.respLayer4.occupancy         660217233                       # Layer occupancy (ticks)
system.tol2bus.respLayer4.utilization             3.3                       # Layer utilization (%)
system.tol2bus.respLayer1.occupancy         420678258                       # Layer occupancy (ticks)
system.tol2bus.respLayer1.utilization             2.1                       # Layer utilization (%)
system.tol2bus.respLayer0.occupancy         106121442                       # Layer occupancy (ticks)
system.tol2bus.respLayer0.utilization             0.5                       # Layer utilization (%)
system.tol2bus.power_state.pwrStateResidencyTicks::UNDEFINED  20173237000                       # Cumulative time (in ticks) in various power states

---------- End Simulation Statistics   ----------
