
---------- Begin Simulation Statistics ----------
final_tick                                33193129000                       # Number of ticks from beginning of simulation (restored from checkpoints and never reset)
host_inst_rate                                 209443                       # Simulator instruction rate (inst/s)
host_mem_usage                                4437600                       # Number of bytes of host memory used
host_op_rate                                   371306                       # Simulator op (including micro ops) rate (op/s)
host_seconds                                    90.59                       # Real time elapsed on the host
host_tick_rate                              366407478                       # Simulator tick rate (ticks/s)
sim_freq                                 1000000000000                       # Frequency of simulated ticks
sim_insts                                    18973596                       # Number of instructions simulated
sim_ops                                      33636907                       # Number of ops (including micro ops) simulated
sim_seconds                                  0.033193                       # Number of seconds simulated
sim_ticks                                 33193129000                       # Number of ticks simulated
system.cpu0.branchPred.BTBCorrect                   0                       # Number of correct BTB predictions (this stat may not work properly.
system.cpu0.branchPred.BTBHitPct                  nan                       # BTB Hit Percentage
system.cpu0.branchPred.BTBHits                      0                       # Number of BTB hits
system.cpu0.branchPred.BTBLookups                   0                       # Number of BTB lookups
system.cpu0.branchPred.RASInCorrect                 0                       # Number of incorrect RAS predictions.
system.cpu0.branchPred.condIncorrect               39                       # Number of conditional branches incorrect
system.cpu0.branchPred.condPredicted               80                       # Number of conditional branches predicted
system.cpu0.branchPred.indirectHits                 0                       # Number of indirect target hits.
system.cpu0.branchPred.indirectLookups             24                       # Number of indirect predictor lookups.
system.cpu0.branchPred.indirectMisses              24                       # Number of indirect misses.
system.cpu0.branchPred.lookups                     80                       # Number of BP lookups
system.cpu0.branchPred.usedRAS                      0                       # Number of times the RAS was used to get a target.
system.cpu0.branchPredindirectMispredicted           15                       # Number of mispredicted indirect branches.
system.cpu0.committedInsts                   10000000                       # Number of instructions committed
system.cpu0.committedOps                     18916380                       # Number of ops (including micro ops) committed
system.cpu0.cpi                              6.638626                       # CPI: cycles per instruction
system.cpu0.discardedOps                      3503851                       # Number of ops (including micro ops) which were discarded before commit
system.cpu0.dtb.rdAccesses                    2501867                       # TLB accesses on read requests
system.cpu0.dtb.rdMisses                        32888                       # TLB misses on read requests
system.cpu0.dtb.wrAccesses                    1828767                       # TLB accesses on write requests
system.cpu0.dtb.wrMisses                         1226                       # TLB misses on write requests
system.cpu0.fetch2.amo_instructions                 0                       # Number of memory atomic instructions successfully decoded
system.cpu0.fetch2.fp_instructions                  0                       # Number of floating point instructions successfully decoded
system.cpu0.fetch2.int_instructions                 8                       # Number of integer instructions successfully decoded
system.cpu0.fetch2.load_instructions                0                       # Number of memory load instructions successfully decoded
system.cpu0.fetch2.store_instructions               0                       # Number of memory store instructions successfully decoded
system.cpu0.fetch2.vec_instructions                 0                       # Number of SIMD instructions successfully decoded
system.cpu0.idleCycles                       33874369                       # Total number of cycles that the object has spent stopped
system.cpu0.ipc                              0.150634                       # IPC: instructions per cycle
system.cpu0.itb.rdAccesses                          0                       # TLB accesses on read requests
system.cpu0.itb.rdMisses                            0                       # TLB misses on read requests
system.cpu0.itb.wrAccesses                    3366947                       # TLB accesses on write requests
system.cpu0.itb.wrMisses                          221                       # TLB misses on write requests
system.cpu0.numCycles                        66386258                       # number of cpu cycles simulated
system.cpu0.numFetchSuspends                        0                       # Number of times Execute suspended instruction fetching
system.cpu0.numWorkItemsCompleted                   0                       # number of work items this cpu completed
system.cpu0.numWorkItemsStarted                     0                       # number of work items this cpu started
system.cpu0.op_class_0::No_OpClass              38775      0.20%      0.20% # Class of committed instruction
system.cpu0.op_class_0::IntAlu               14860976     78.56%     78.77% # Class of committed instruction
system.cpu0.op_class_0::IntMult                 41062      0.22%     78.98% # Class of committed instruction
system.cpu0.op_class_0::IntDiv                   1365      0.01%     78.99% # Class of committed instruction
system.cpu0.op_class_0::FloatAdd                24884      0.13%     79.12% # Class of committed instruction
system.cpu0.op_class_0::FloatCmp                    0      0.00%     79.12% # Class of committed instruction
system.cpu0.op_class_0::FloatCvt                  160      0.00%     79.12% # Class of committed instruction
system.cpu0.op_class_0::FloatMult                   0      0.00%     79.12% # Class of committed instruction
system.cpu0.op_class_0::FloatMultAcc                0      0.00%     79.12% # Class of committed instruction
system.cpu0.op_class_0::FloatDiv                    0      0.00%     79.12% # Class of committed instruction
system.cpu0.op_class_0::FloatMisc                   0      0.00%     79.12% # Class of committed instruction
system.cpu0.op_class_0::FloatSqrt                   0      0.00%     79.12% # Class of committed instruction
system.cpu0.op_class_0::SimdAdd                   946      0.01%     79.13% # Class of committed instruction
system.cpu0.op_class_0::SimdAddAcc                  0      0.00%     79.13% # Class of committed instruction
system.cpu0.op_class_0::SimdAlu                  1027      0.01%     79.13% # Class of committed instruction
system.cpu0.op_class_0::SimdCmp                    12      0.00%     79.13% # Class of committed instruction
system.cpu0.op_class_0::SimdCvt                 27378      0.14%     79.28% # Class of committed instruction
system.cpu0.op_class_0::SimdMisc               112708      0.60%     79.87% # Class of committed instruction
system.cpu0.op_class_0::SimdMult                    0      0.00%     79.87% # Class of committed instruction
system.cpu0.op_class_0::SimdMultAcc                 0      0.00%     79.87% # Class of committed instruction
system.cpu0.op_class_0::SimdShift                 446      0.00%     79.88% # Class of committed instruction
system.cpu0.op_class_0::SimdShiftAcc                0      0.00%     79.88% # Class of committed instruction
system.cpu0.op_class_0::SimdDiv                     0      0.00%     79.88% # Class of committed instruction
system.cpu0.op_class_0::SimdSqrt                    0      0.00%     79.88% # Class of committed instruction
system.cpu0.op_class_0::SimdFloatAdd                0      0.00%     79.88% # Class of committed instruction
system.cpu0.op_class_0::SimdFloatAlu                0      0.00%     79.88% # Class of committed instruction
system.cpu0.op_class_0::SimdFloatCmp                0      0.00%     79.88% # Class of committed instruction
system.cpu0.op_class_0::SimdFloatCvt                0      0.00%     79.88% # Class of committed instruction
system.cpu0.op_class_0::SimdFloatDiv                0      0.00%     79.88% # Class of committed instruction
system.cpu0.op_class_0::SimdFloatMisc               0      0.00%     79.88% # Class of committed instruction
system.cpu0.op_class_0::SimdFloatMult               0      0.00%     79.88% # Class of committed instruction
system.cpu0.op_class_0::SimdFloatMultAcc            0      0.00%     79.88% # Class of committed instruction
system.cpu0.op_class_0::SimdFloatSqrt               0      0.00%     79.88% # Class of committed instruction
system.cpu0.op_class_0::SimdReduceAdd               0      0.00%     79.88% # Class of committed instruction
system.cpu0.op_class_0::SimdReduceAlu               0      0.00%     79.88% # Class of committed instruction
system.cpu0.op_class_0::SimdReduceCmp               0      0.00%     79.88% # Class of committed instruction
system.cpu0.op_class_0::SimdFloatReduceAdd            0      0.00%     79.88% # Class of committed instruction
system.cpu0.op_class_0::SimdFloatReduceCmp            0      0.00%     79.88% # Class of committed instruction
system.cpu0.op_class_0::SimdAes                     0      0.00%     79.88% # Class of committed instruction
system.cpu0.op_class_0::SimdAesMix                  0      0.00%     79.88% # Class of committed instruction
system.cpu0.op_class_0::SimdSha1Hash                0      0.00%     79.88% # Class of committed instruction
system.cpu0.op_class_0::SimdSha1Hash2               0      0.00%     79.88% # Class of committed instruction
system.cpu0.op_class_0::SimdSha256Hash              0      0.00%     79.88% # Class of committed instruction
system.cpu0.op_class_0::SimdSha256Hash2             0      0.00%     79.88% # Class of committed instruction
system.cpu0.op_class_0::SimdShaSigma2               0      0.00%     79.88% # Class of committed instruction
system.cpu0.op_class_0::SimdShaSigma3               0      0.00%     79.88% # Class of committed instruction
system.cpu0.op_class_0::SimdPredAlu                 0      0.00%     79.88% # Class of committed instruction
system.cpu0.op_class_0::MemRead               2046688     10.82%     90.70% # Class of committed instruction
system.cpu0.op_class_0::MemWrite              1656607      8.76%     99.45% # Class of committed instruction
system.cpu0.op_class_0::FloatMemRead            64978      0.34%     99.80% # Class of committed instruction
system.cpu0.op_class_0::FloatMemWrite           38368      0.20%    100.00% # Class of committed instruction
system.cpu0.op_class_0::IprAccess                   0      0.00%    100.00% # Class of committed instruction
system.cpu0.op_class_0::InstPrefetch                0      0.00%    100.00% # Class of committed instruction
system.cpu0.op_class_0::total                18916380                       # Class of committed instruction
system.cpu0.tickCycles                       32511889                       # Number of cycles that the object actually ticked
system.cpu0.workload.numSyscalls                   39                       # Number of system calls
system.cpu1.branchPred.BTBCorrect                   0                       # Number of correct BTB predictions (this stat may not work properly.
system.cpu1.branchPred.BTBHitPct                  nan                       # BTB Hit Percentage
system.cpu1.branchPred.BTBHits                      0                       # Number of BTB hits
system.cpu1.branchPred.BTBLookups                   0                       # Number of BTB lookups
system.cpu1.branchPred.RASInCorrect                 0                       # Number of incorrect RAS predictions.
system.cpu1.branchPred.condIncorrect               37                       # Number of conditional branches incorrect
system.cpu1.branchPred.condPredicted               82                       # Number of conditional branches predicted
system.cpu1.branchPred.indirectHits                 0                       # Number of indirect target hits.
system.cpu1.branchPred.indirectLookups             24                       # Number of indirect predictor lookups.
system.cpu1.branchPred.indirectMisses              24                       # Number of indirect misses.
system.cpu1.branchPred.lookups                     82                       # Number of BP lookups
system.cpu1.branchPred.usedRAS                      0                       # Number of times the RAS was used to get a target.
system.cpu1.branchPredindirectMispredicted           10                       # Number of mispredicted indirect branches.
system.cpu1.committedInsts                    8973596                       # Number of instructions committed
system.cpu1.committedOps                     14720527                       # Number of ops (including micro ops) committed
system.cpu1.cpi                              7.397902                       # CPI: cycles per instruction
system.cpu1.discardedOps                      4681419                       # Number of ops (including micro ops) which were discarded before commit
system.cpu1.dtb.rdAccesses                    1344141                       # TLB accesses on read requests
system.cpu1.dtb.rdMisses                         2664                       # TLB misses on read requests
system.cpu1.dtb.wrAccesses                     589209                       # TLB accesses on write requests
system.cpu1.dtb.wrMisses                           89                       # TLB misses on write requests
system.cpu1.fetch2.amo_instructions                 0                       # Number of memory atomic instructions successfully decoded
system.cpu1.fetch2.fp_instructions                  0                       # Number of floating point instructions successfully decoded
system.cpu1.fetch2.int_instructions                 9                       # Number of integer instructions successfully decoded
system.cpu1.fetch2.load_instructions                0                       # Number of memory load instructions successfully decoded
system.cpu1.fetch2.store_instructions               0                       # Number of memory store instructions successfully decoded
system.cpu1.fetch2.vec_instructions                 0                       # Number of SIMD instructions successfully decoded
system.cpu1.idleCycles                       36728491                       # Total number of cycles that the object has spent stopped
system.cpu1.ipc                              0.135173                       # IPC: instructions per cycle
system.cpu1.itb.rdAccesses                          0                       # TLB accesses on read requests
system.cpu1.itb.rdMisses                            0                       # TLB misses on read requests
system.cpu1.itb.wrAccesses                    4318100                       # TLB accesses on write requests
system.cpu1.itb.wrMisses                          245                       # TLB misses on write requests
system.cpu1.numCycles                        66385780                       # number of cpu cycles simulated
system.cpu1.numFetchSuspends                        0                       # Number of times Execute suspended instruction fetching
system.cpu1.numWorkItemsCompleted                   0                       # number of work items this cpu completed
system.cpu1.numWorkItemsStarted                     0                       # number of work items this cpu started
system.cpu1.op_class_0::No_OpClass              10510      0.07%      0.07% # Class of committed instruction
system.cpu1.op_class_0::IntAlu               12645955     85.91%     85.98% # Class of committed instruction
system.cpu1.op_class_0::IntMult                  6224      0.04%     86.02% # Class of committed instruction
system.cpu1.op_class_0::IntDiv                   1585      0.01%     86.03% # Class of committed instruction
system.cpu1.op_class_0::FloatAdd               139604      0.95%     86.98% # Class of committed instruction
system.cpu1.op_class_0::FloatCmp                    0      0.00%     86.98% # Class of committed instruction
system.cpu1.op_class_0::FloatCvt                  144      0.00%     86.98% # Class of committed instruction
system.cpu1.op_class_0::FloatMult                   0      0.00%     86.98% # Class of committed instruction
system.cpu1.op_class_0::FloatMultAcc                0      0.00%     86.98% # Class of committed instruction
system.cpu1.op_class_0::FloatDiv                    0      0.00%     86.98% # Class of committed instruction
system.cpu1.op_class_0::FloatMisc                   0      0.00%     86.98% # Class of committed instruction
system.cpu1.op_class_0::FloatSqrt                   0      0.00%     86.98% # Class of committed instruction
system.cpu1.op_class_0::SimdAdd                  1170      0.01%     86.99% # Class of committed instruction
system.cpu1.op_class_0::SimdAddAcc                  0      0.00%     86.99% # Class of committed instruction
system.cpu1.op_class_0::SimdAlu                  1323      0.01%     87.00% # Class of committed instruction
system.cpu1.op_class_0::SimdCmp                     6      0.00%     87.00% # Class of committed instruction
system.cpu1.op_class_0::SimdCvt                  1838      0.01%     87.01% # Class of committed instruction
system.cpu1.op_class_0::SimdMisc                17658      0.12%     87.13% # Class of committed instruction
system.cpu1.op_class_0::SimdMult                    0      0.00%     87.13% # Class of committed instruction
system.cpu1.op_class_0::SimdMultAcc                 0      0.00%     87.13% # Class of committed instruction
system.cpu1.op_class_0::SimdShift                 408      0.00%     87.13% # Class of committed instruction
system.cpu1.op_class_0::SimdShiftAcc                0      0.00%     87.13% # Class of committed instruction
system.cpu1.op_class_0::SimdDiv                     0      0.00%     87.13% # Class of committed instruction
system.cpu1.op_class_0::SimdSqrt                    0      0.00%     87.13% # Class of committed instruction
system.cpu1.op_class_0::SimdFloatAdd            28658      0.19%     87.33% # Class of committed instruction
system.cpu1.op_class_0::SimdFloatAlu                0      0.00%     87.33% # Class of committed instruction
system.cpu1.op_class_0::SimdFloatCmp                0      0.00%     87.33% # Class of committed instruction
system.cpu1.op_class_0::SimdFloatCvt            34832      0.24%     87.56% # Class of committed instruction
system.cpu1.op_class_0::SimdFloatDiv               22      0.00%     87.56% # Class of committed instruction
system.cpu1.op_class_0::SimdFloatMisc               0      0.00%     87.56% # Class of committed instruction
system.cpu1.op_class_0::SimdFloatMult           49128      0.33%     87.90% # Class of committed instruction
system.cpu1.op_class_0::SimdFloatMultAcc            0      0.00%     87.90% # Class of committed instruction
system.cpu1.op_class_0::SimdFloatSqrt               0      0.00%     87.90% # Class of committed instruction
system.cpu1.op_class_0::SimdReduceAdd               0      0.00%     87.90% # Class of committed instruction
system.cpu1.op_class_0::SimdReduceAlu               0      0.00%     87.90% # Class of committed instruction
system.cpu1.op_class_0::SimdReduceCmp               0      0.00%     87.90% # Class of committed instruction
system.cpu1.op_class_0::SimdFloatReduceAdd            0      0.00%     87.90% # Class of committed instruction
system.cpu1.op_class_0::SimdFloatReduceCmp            0      0.00%     87.90% # Class of committed instruction
system.cpu1.op_class_0::SimdAes                     0      0.00%     87.90% # Class of committed instruction
system.cpu1.op_class_0::SimdAesMix                  0      0.00%     87.90% # Class of committed instruction
system.cpu1.op_class_0::SimdSha1Hash                0      0.00%     87.90% # Class of committed instruction
system.cpu1.op_class_0::SimdSha1Hash2               0      0.00%     87.90% # Class of committed instruction
system.cpu1.op_class_0::SimdSha256Hash              0      0.00%     87.90% # Class of committed instruction
system.cpu1.op_class_0::SimdSha256Hash2             0      0.00%     87.90% # Class of committed instruction
system.cpu1.op_class_0::SimdShaSigma2               0      0.00%     87.90% # Class of committed instruction
system.cpu1.op_class_0::SimdShaSigma3               0      0.00%     87.90% # Class of committed instruction
system.cpu1.op_class_0::SimdPredAlu                 0      0.00%     87.90% # Class of committed instruction
system.cpu1.op_class_0::MemRead               1139154      7.74%     95.64% # Class of committed instruction
system.cpu1.op_class_0::MemWrite               516105      3.51%     99.14% # Class of committed instruction
system.cpu1.op_class_0::FloatMemRead            80716      0.55%     99.69% # Class of committed instruction
system.cpu1.op_class_0::FloatMemWrite           45487      0.31%    100.00% # Class of committed instruction
system.cpu1.op_class_0::IprAccess                   0      0.00%    100.00% # Class of committed instruction
system.cpu1.op_class_0::InstPrefetch                0      0.00%    100.00% # Class of committed instruction
system.cpu1.op_class_0::total                14720527                       # Class of committed instruction
system.cpu1.tickCycles                       29657289                       # Number of cycles that the object actually ticked
system.cpu1.workload.numSyscalls                   37                       # Number of system calls
system.membus.snoop_filter.hit_multi_requests            0                       # Number of requests hitting in the snoop filter with multiple (>1) holders of the requested data.
system.membus.snoop_filter.hit_multi_snoops            0                       # Number of snoops hitting in the snoop filter with multiple (>1) holders of the requested data.
system.membus.snoop_filter.hit_single_requests       282045                       # Number of requests hitting in the snoop filter with a single holder of the requested data.
system.membus.snoop_filter.hit_single_snoops            0                       # Number of snoops hitting in the snoop filter with a single holder of the requested data.
system.membus.snoop_filter.tot_requests        565115                       # Total number of requests made to the snoop filter.
system.membus.snoop_filter.tot_snoops               0                       # Total number of snoops made to the snoop filter.
system.tol2bus.snoop_filter.hit_multi_requests            0                       # Number of requests hitting in the snoop filter with multiple (>1) holders of the requested data.
system.tol2bus.snoop_filter.hit_multi_snoops            0                       # Number of snoops hitting in the snoop filter with multiple (>1) holders of the requested data.
system.tol2bus.snoop_filter.hit_single_requests      2599052                       # Number of requests hitting in the snoop filter with a single holder of the requested data.
system.tol2bus.snoop_filter.hit_single_snoops          884                       # Number of snoops hitting in the snoop filter with a single holder of the requested data.
system.tol2bus.snoop_filter.tot_requests      5198169                       # Total number of requests made to the snoop filter.
system.tol2bus.snoop_filter.tot_snoops            884                       # Total number of snoops made to the snoop filter.
system.membus.trans_dist::ReadResp             240281                       # Transaction distribution
system.membus.trans_dist::WritebackDirty       133162                       # Transaction distribution
system.membus.trans_dist::CleanEvict           148883                       # Transaction distribution
system.membus.trans_dist::ReadExReq             42789                       # Transaction distribution
system.membus.trans_dist::ReadExResp            42789                       # Transaction distribution
system.membus.trans_dist::ReadSharedReq        240281                       # Transaction distribution
system.membus.pkt_count_system.l2.mem_side::system.mem_ctrls.port       848185                       # Packet count per connected master and slave (bytes)
system.membus.pkt_count_system.l2.mem_side::total       848185                       # Packet count per connected master and slave (bytes)
system.membus.pkt_count::total                 848185                       # Packet count per connected master and slave (bytes)
system.membus.pkt_size_system.l2.mem_side::system.mem_ctrls.port     26638848                       # Cumulative packet size per connected master and slave (bytes)
system.membus.pkt_size_system.l2.mem_side::total     26638848                       # Cumulative packet size per connected master and slave (bytes)
system.membus.pkt_size::total                26638848                       # Cumulative packet size per connected master and slave (bytes)
system.membus.snoops                                0                       # Total snoops (count)
system.membus.snoopTraffic                          0                       # Total snoop traffic (bytes)
system.membus.snoop_fanout::samples            283070                       # Request fanout histogram
system.membus.snoop_fanout::mean                    0                       # Request fanout histogram
system.membus.snoop_fanout::stdev                   0                       # Request fanout histogram
system.membus.snoop_fanout::underflows              0      0.00%      0.00% # Request fanout histogram
system.membus.snoop_fanout::0                  283070    100.00%    100.00% # Request fanout histogram
system.membus.snoop_fanout::1                       0      0.00%    100.00% # Request fanout histogram
system.membus.snoop_fanout::overflows               0      0.00%    100.00% # Request fanout histogram
system.membus.snoop_fanout::min_value               0                       # Request fanout histogram
system.membus.snoop_fanout::max_value               0                       # Request fanout histogram
system.membus.snoop_fanout::total              283070                       # Request fanout histogram
system.membus.reqLayer4.occupancy          1193239500                       # Layer occupancy (ticks)
system.membus.reqLayer4.utilization               3.6                       # Layer utilization (%)
system.membus.respLayer1.occupancy         1496305500                       # Layer occupancy (ticks)
system.membus.respLayer1.utilization              4.5                       # Layer utilization (%)
system.membus.power_state.pwrStateResidencyTicks::UNDEFINED  33193129000                       # Cumulative time (in ticks) in various power states
system.voltage_domain.voltage                       1                       # Voltage in Volts
system.clk_domain.clock                          1000                       # Clock period in ticks
system.cpu0.icache.demand_hits::.cpu0.inst      1730882                       # number of demand (read+write) hits
system.cpu0.icache.demand_hits::total         1730882                       # number of demand (read+write) hits
system.cpu0.icache.overall_hits::.cpu0.inst      1730882                       # number of overall hits
system.cpu0.icache.overall_hits::total        1730882                       # number of overall hits
system.cpu0.icache.demand_misses::.cpu0.inst      1636012                       # number of demand (read+write) misses
system.cpu0.icache.demand_misses::total       1636012                       # number of demand (read+write) misses
system.cpu0.icache.overall_misses::.cpu0.inst      1636012                       # number of overall misses
system.cpu0.icache.overall_misses::total      1636012                       # number of overall misses
system.cpu0.icache.demand_miss_latency::.cpu0.inst  21449274500                       # number of demand (read+write) miss cycles
system.cpu0.icache.demand_miss_latency::total  21449274500                       # number of demand (read+write) miss cycles
system.cpu0.icache.overall_miss_latency::.cpu0.inst  21449274500                       # number of overall miss cycles
system.cpu0.icache.overall_miss_latency::total  21449274500                       # number of overall miss cycles
system.cpu0.icache.demand_accesses::.cpu0.inst      3366894                       # number of demand (read+write) accesses
system.cpu0.icache.demand_accesses::total      3366894                       # number of demand (read+write) accesses
system.cpu0.icache.overall_accesses::.cpu0.inst      3366894                       # number of overall (read+write) accesses
system.cpu0.icache.overall_accesses::total      3366894                       # number of overall (read+write) accesses
system.cpu0.icache.demand_miss_rate::.cpu0.inst     0.485911                       # miss rate for demand accesses
system.cpu0.icache.demand_miss_rate::total     0.485911                       # miss rate for demand accesses
system.cpu0.icache.overall_miss_rate::.cpu0.inst     0.485911                       # miss rate for overall accesses
system.cpu0.icache.overall_miss_rate::total     0.485911                       # miss rate for overall accesses
system.cpu0.icache.demand_avg_miss_latency::.cpu0.inst 13110.707318                       # average overall miss latency
system.cpu0.icache.demand_avg_miss_latency::total 13110.707318                       # average overall miss latency
system.cpu0.icache.overall_avg_miss_latency::.cpu0.inst 13110.707318                       # average overall miss latency
system.cpu0.icache.overall_avg_miss_latency::total 13110.707318                       # average overall miss latency
system.cpu0.icache.blocked_cycles::no_mshrs            0                       # number of cycles access was blocked
system.cpu0.icache.blocked_cycles::no_targets            0                       # number of cycles access was blocked
system.cpu0.icache.blocked::no_mshrs                0                       # number of cycles access was blocked
system.cpu0.icache.blocked::no_targets              0                       # number of cycles access was blocked
system.cpu0.icache.avg_blocked_cycles::no_mshrs          nan                       # average number of cycles each access was blocked
system.cpu0.icache.avg_blocked_cycles::no_targets          nan                       # average number of cycles each access was blocked
system.cpu0.icache.writebacks::.writebacks      1635996                       # number of writebacks
system.cpu0.icache.writebacks::total          1635996                       # number of writebacks
system.cpu0.icache.demand_mshr_misses::.cpu0.inst      1636012                       # number of demand (read+write) MSHR misses
system.cpu0.icache.demand_mshr_misses::total      1636012                       # number of demand (read+write) MSHR misses
system.cpu0.icache.overall_mshr_misses::.cpu0.inst      1636012                       # number of overall MSHR misses
system.cpu0.icache.overall_mshr_misses::total      1636012                       # number of overall MSHR misses
system.cpu0.icache.demand_mshr_miss_latency::.cpu0.inst  19813262500                       # number of demand (read+write) MSHR miss cycles
system.cpu0.icache.demand_mshr_miss_latency::total  19813262500                       # number of demand (read+write) MSHR miss cycles
system.cpu0.icache.overall_mshr_miss_latency::.cpu0.inst  19813262500                       # number of overall MSHR miss cycles
system.cpu0.icache.overall_mshr_miss_latency::total  19813262500                       # number of overall MSHR miss cycles
system.cpu0.icache.demand_mshr_miss_rate::.cpu0.inst     0.485911                       # mshr miss rate for demand accesses
system.cpu0.icache.demand_mshr_miss_rate::total     0.485911                       # mshr miss rate for demand accesses
system.cpu0.icache.overall_mshr_miss_rate::.cpu0.inst     0.485911                       # mshr miss rate for overall accesses
system.cpu0.icache.overall_mshr_miss_rate::total     0.485911                       # mshr miss rate for overall accesses
system.cpu0.icache.demand_avg_mshr_miss_latency::.cpu0.inst 12110.707318                       # average overall mshr miss latency
system.cpu0.icache.demand_avg_mshr_miss_latency::total 12110.707318                       # average overall mshr miss latency
system.cpu0.icache.overall_avg_mshr_miss_latency::.cpu0.inst 12110.707318                       # average overall mshr miss latency
system.cpu0.icache.overall_avg_mshr_miss_latency::total 12110.707318                       # average overall mshr miss latency
system.cpu0.icache.replacements               1635996                       # number of replacements
system.cpu0.icache.ReadReq_hits::.cpu0.inst      1730882                       # number of ReadReq hits
system.cpu0.icache.ReadReq_hits::total        1730882                       # number of ReadReq hits
system.cpu0.icache.ReadReq_misses::.cpu0.inst      1636012                       # number of ReadReq misses
system.cpu0.icache.ReadReq_misses::total      1636012                       # number of ReadReq misses
system.cpu0.icache.ReadReq_miss_latency::.cpu0.inst  21449274500                       # number of ReadReq miss cycles
system.cpu0.icache.ReadReq_miss_latency::total  21449274500                       # number of ReadReq miss cycles
system.cpu0.icache.ReadReq_accesses::.cpu0.inst      3366894                       # number of ReadReq accesses(hits+misses)
system.cpu0.icache.ReadReq_accesses::total      3366894                       # number of ReadReq accesses(hits+misses)
system.cpu0.icache.ReadReq_miss_rate::.cpu0.inst     0.485911                       # miss rate for ReadReq accesses
system.cpu0.icache.ReadReq_miss_rate::total     0.485911                       # miss rate for ReadReq accesses
system.cpu0.icache.ReadReq_avg_miss_latency::.cpu0.inst 13110.707318                       # average ReadReq miss latency
system.cpu0.icache.ReadReq_avg_miss_latency::total 13110.707318                       # average ReadReq miss latency
system.cpu0.icache.ReadReq_mshr_misses::.cpu0.inst      1636012                       # number of ReadReq MSHR misses
system.cpu0.icache.ReadReq_mshr_misses::total      1636012                       # number of ReadReq MSHR misses
system.cpu0.icache.ReadReq_mshr_miss_latency::.cpu0.inst  19813262500                       # number of ReadReq MSHR miss cycles
system.cpu0.icache.ReadReq_mshr_miss_latency::total  19813262500                       # number of ReadReq MSHR miss cycles
system.cpu0.icache.ReadReq_mshr_miss_rate::.cpu0.inst     0.485911                       # mshr miss rate for ReadReq accesses
system.cpu0.icache.ReadReq_mshr_miss_rate::total     0.485911                       # mshr miss rate for ReadReq accesses
system.cpu0.icache.ReadReq_avg_mshr_miss_latency::.cpu0.inst 12110.707318                       # average ReadReq mshr miss latency
system.cpu0.icache.ReadReq_avg_mshr_miss_latency::total 12110.707318                       # average ReadReq mshr miss latency
system.cpu0.icache.power_state.pwrStateResidencyTicks::UNDEFINED  33193129000                       # Cumulative time (in ticks) in various power states
system.cpu0.icache.tags.tagsinuse           15.999562                       # Cycle average of tags in use
system.cpu0.icache.tags.total_refs            3366894                       # Total number of references to valid blocks.
system.cpu0.icache.tags.sampled_refs          1636012                       # Sample count of references to valid blocks.
system.cpu0.icache.tags.avg_refs             2.057989                       # Average number of references to valid blocks.
system.cpu0.icache.tags.warmup_cycle            87500                       # Cycle when the warmup percentage was hit.
system.cpu0.icache.tags.occ_blocks::.cpu0.inst    15.999562                       # Average occupied blocks per requestor
system.cpu0.icache.tags.occ_percent::.cpu0.inst     0.999973                       # Average percentage of cache occupancy
system.cpu0.icache.tags.occ_percent::total     0.999973                       # Average percentage of cache occupancy
system.cpu0.icache.tags.occ_task_id_blocks::1024           16                       # Occupied blocks per task id
system.cpu0.icache.tags.age_task_id_blocks_1024::0           16                       # Occupied blocks per task id
system.cpu0.icache.tags.occ_task_id_percent::1024            1                       # Percentage of cache occupancy per task id
system.cpu0.icache.tags.tag_accesses         28571164                       # Number of tag accesses
system.cpu0.icache.tags.data_accesses        28571164                       # Number of data accesses
system.cpu0.icache.tags.power_state.pwrStateResidencyTicks::UNDEFINED  33193129000                       # Cumulative time (in ticks) in various power states
system.cpu0.dtb.walker.power_state.pwrStateResidencyTicks::UNDEFINED  33193129000                       # Cumulative time (in ticks) in various power states
system.cpu0.interrupts.clk_domain.clock          8000                       # Clock period in ticks
system.cpu0.itb_walker_cache.blocked_cycles::no_mshrs            0                       # number of cycles access was blocked
system.cpu0.itb_walker_cache.blocked_cycles::no_targets            0                       # number of cycles access was blocked
system.cpu0.itb_walker_cache.blocked::no_mshrs            0                       # number of cycles access was blocked
system.cpu0.itb_walker_cache.blocked::no_targets            0                       # number of cycles access was blocked
system.cpu0.itb_walker_cache.avg_blocked_cycles::no_mshrs          nan                       # average number of cycles each access was blocked
system.cpu0.itb_walker_cache.avg_blocked_cycles::no_targets          nan                       # average number of cycles each access was blocked
system.cpu0.itb_walker_cache.replacements            0                       # number of replacements
system.cpu0.itb_walker_cache.power_state.pwrStateResidencyTicks::UNDEFINED  33193129000                       # Cumulative time (in ticks) in various power states
system.cpu0.itb_walker_cache.tags.tagsinuse            0                       # Cycle average of tags in use
system.cpu0.itb_walker_cache.tags.total_refs            0                       # Total number of references to valid blocks.
system.cpu0.itb_walker_cache.tags.sampled_refs            0                       # Sample count of references to valid blocks.
system.cpu0.itb_walker_cache.tags.avg_refs          nan                       # Average number of references to valid blocks.
system.cpu0.itb_walker_cache.tags.warmup_cycle            0                       # Cycle when the warmup percentage was hit.
system.cpu0.itb_walker_cache.tags.tag_accesses            0                       # Number of tag accesses
system.cpu0.itb_walker_cache.tags.data_accesses            0                       # Number of data accesses
system.cpu0.itb_walker_cache.tags.power_state.pwrStateResidencyTicks::UNDEFINED  33193129000                       # Cumulative time (in ticks) in various power states
system.cpu0.dtb_walker_cache.blocked_cycles::no_mshrs            0                       # number of cycles access was blocked
system.cpu0.dtb_walker_cache.blocked_cycles::no_targets            0                       # number of cycles access was blocked
system.cpu0.dtb_walker_cache.blocked::no_mshrs            0                       # number of cycles access was blocked
system.cpu0.dtb_walker_cache.blocked::no_targets            0                       # number of cycles access was blocked
system.cpu0.dtb_walker_cache.avg_blocked_cycles::no_mshrs          nan                       # average number of cycles each access was blocked
system.cpu0.dtb_walker_cache.avg_blocked_cycles::no_targets          nan                       # average number of cycles each access was blocked
system.cpu0.dtb_walker_cache.replacements            0                       # number of replacements
system.cpu0.dtb_walker_cache.power_state.pwrStateResidencyTicks::UNDEFINED  33193129000                       # Cumulative time (in ticks) in various power states
system.cpu0.dtb_walker_cache.tags.tagsinuse            0                       # Cycle average of tags in use
system.cpu0.dtb_walker_cache.tags.total_refs            0                       # Total number of references to valid blocks.
system.cpu0.dtb_walker_cache.tags.sampled_refs            0                       # Sample count of references to valid blocks.
system.cpu0.dtb_walker_cache.tags.avg_refs          nan                       # Average number of references to valid blocks.
system.cpu0.dtb_walker_cache.tags.warmup_cycle            0                       # Cycle when the warmup percentage was hit.
system.cpu0.dtb_walker_cache.tags.tag_accesses            0                       # Number of tag accesses
system.cpu0.dtb_walker_cache.tags.data_accesses            0                       # Number of data accesses
system.cpu0.dtb_walker_cache.tags.power_state.pwrStateResidencyTicks::UNDEFINED  33193129000                       # Cumulative time (in ticks) in various power states
system.cpu0.dcache.demand_hits::.cpu0.data      3402057                       # number of demand (read+write) hits
system.cpu0.dcache.demand_hits::total         3402057                       # number of demand (read+write) hits
system.cpu0.dcache.overall_hits::.cpu0.data      3402057                       # number of overall hits
system.cpu0.dcache.overall_hits::total        3402057                       # number of overall hits
system.cpu0.dcache.demand_misses::.cpu0.data       722627                       # number of demand (read+write) misses
system.cpu0.dcache.demand_misses::total        722627                       # number of demand (read+write) misses
system.cpu0.dcache.overall_misses::.cpu0.data       722627                       # number of overall misses
system.cpu0.dcache.overall_misses::total       722627                       # number of overall misses
system.cpu0.dcache.demand_miss_latency::.cpu0.data  14011600500                       # number of demand (read+write) miss cycles
system.cpu0.dcache.demand_miss_latency::total  14011600500                       # number of demand (read+write) miss cycles
system.cpu0.dcache.overall_miss_latency::.cpu0.data  14011600500                       # number of overall miss cycles
system.cpu0.dcache.overall_miss_latency::total  14011600500                       # number of overall miss cycles
system.cpu0.dcache.demand_accesses::.cpu0.data      4124684                       # number of demand (read+write) accesses
system.cpu0.dcache.demand_accesses::total      4124684                       # number of demand (read+write) accesses
system.cpu0.dcache.overall_accesses::.cpu0.data      4124684                       # number of overall (read+write) accesses
system.cpu0.dcache.overall_accesses::total      4124684                       # number of overall (read+write) accesses
system.cpu0.dcache.demand_miss_rate::.cpu0.data     0.175196                       # miss rate for demand accesses
system.cpu0.dcache.demand_miss_rate::total     0.175196                       # miss rate for demand accesses
system.cpu0.dcache.overall_miss_rate::.cpu0.data     0.175196                       # miss rate for overall accesses
system.cpu0.dcache.overall_miss_rate::total     0.175196                       # miss rate for overall accesses
system.cpu0.dcache.demand_avg_miss_latency::.cpu0.data 19389.810372                       # average overall miss latency
system.cpu0.dcache.demand_avg_miss_latency::total 19389.810372                       # average overall miss latency
system.cpu0.dcache.overall_avg_miss_latency::.cpu0.data 19389.810372                       # average overall miss latency
system.cpu0.dcache.overall_avg_miss_latency::total 19389.810372                       # average overall miss latency
system.cpu0.dcache.blocked_cycles::no_mshrs            0                       # number of cycles access was blocked
system.cpu0.dcache.blocked_cycles::no_targets            0                       # number of cycles access was blocked
system.cpu0.dcache.blocked::no_mshrs                0                       # number of cycles access was blocked
system.cpu0.dcache.blocked::no_targets              0                       # number of cycles access was blocked
system.cpu0.dcache.avg_blocked_cycles::no_mshrs          nan                       # average number of cycles each access was blocked
system.cpu0.dcache.avg_blocked_cycles::no_targets          nan                       # average number of cycles each access was blocked
system.cpu0.dcache.writebacks::.writebacks       426550                       # number of writebacks
system.cpu0.dcache.writebacks::total           426550                       # number of writebacks
system.cpu0.dcache.demand_mshr_hits::.cpu0.data        85324                       # number of demand (read+write) MSHR hits
system.cpu0.dcache.demand_mshr_hits::total        85324                       # number of demand (read+write) MSHR hits
system.cpu0.dcache.overall_mshr_hits::.cpu0.data        85324                       # number of overall MSHR hits
system.cpu0.dcache.overall_mshr_hits::total        85324                       # number of overall MSHR hits
system.cpu0.dcache.demand_mshr_misses::.cpu0.data       637303                       # number of demand (read+write) MSHR misses
system.cpu0.dcache.demand_mshr_misses::total       637303                       # number of demand (read+write) MSHR misses
system.cpu0.dcache.overall_mshr_misses::.cpu0.data       637303                       # number of overall MSHR misses
system.cpu0.dcache.overall_mshr_misses::total       637303                       # number of overall MSHR misses
system.cpu0.dcache.demand_mshr_miss_latency::.cpu0.data  11023522000                       # number of demand (read+write) MSHR miss cycles
system.cpu0.dcache.demand_mshr_miss_latency::total  11023522000                       # number of demand (read+write) MSHR miss cycles
system.cpu0.dcache.overall_mshr_miss_latency::.cpu0.data  11023522000                       # number of overall MSHR miss cycles
system.cpu0.dcache.overall_mshr_miss_latency::total  11023522000                       # number of overall MSHR miss cycles
system.cpu0.dcache.demand_mshr_miss_rate::.cpu0.data     0.154510                       # mshr miss rate for demand accesses
system.cpu0.dcache.demand_mshr_miss_rate::total     0.154510                       # mshr miss rate for demand accesses
system.cpu0.dcache.overall_mshr_miss_rate::.cpu0.data     0.154510                       # mshr miss rate for overall accesses
system.cpu0.dcache.overall_mshr_miss_rate::total     0.154510                       # mshr miss rate for overall accesses
system.cpu0.dcache.demand_avg_mshr_miss_latency::.cpu0.data 17297.144372                       # average overall mshr miss latency
system.cpu0.dcache.demand_avg_mshr_miss_latency::total 17297.144372                       # average overall mshr miss latency
system.cpu0.dcache.overall_avg_mshr_miss_latency::.cpu0.data 17297.144372                       # average overall mshr miss latency
system.cpu0.dcache.overall_avg_mshr_miss_latency::total 17297.144372                       # average overall mshr miss latency
system.cpu0.dcache.replacements                637287                       # number of replacements
system.cpu0.dcache.ReadReq_hits::.cpu0.data      1963555                       # number of ReadReq hits
system.cpu0.dcache.ReadReq_hits::total        1963555                       # number of ReadReq hits
system.cpu0.dcache.ReadReq_misses::.cpu0.data       466744                       # number of ReadReq misses
system.cpu0.dcache.ReadReq_misses::total       466744                       # number of ReadReq misses
system.cpu0.dcache.ReadReq_miss_latency::.cpu0.data   6958722000                       # number of ReadReq miss cycles
system.cpu0.dcache.ReadReq_miss_latency::total   6958722000                       # number of ReadReq miss cycles
system.cpu0.dcache.ReadReq_accesses::.cpu0.data      2430299                       # number of ReadReq accesses(hits+misses)
system.cpu0.dcache.ReadReq_accesses::total      2430299                       # number of ReadReq accesses(hits+misses)
system.cpu0.dcache.ReadReq_miss_rate::.cpu0.data     0.192052                       # miss rate for ReadReq accesses
system.cpu0.dcache.ReadReq_miss_rate::total     0.192052                       # miss rate for ReadReq accesses
system.cpu0.dcache.ReadReq_avg_miss_latency::.cpu0.data 14909.076496                       # average ReadReq miss latency
system.cpu0.dcache.ReadReq_avg_miss_latency::total 14909.076496                       # average ReadReq miss latency
system.cpu0.dcache.ReadReq_mshr_hits::.cpu0.data        18095                       # number of ReadReq MSHR hits
system.cpu0.dcache.ReadReq_mshr_hits::total        18095                       # number of ReadReq MSHR hits
system.cpu0.dcache.ReadReq_mshr_misses::.cpu0.data       448649                       # number of ReadReq MSHR misses
system.cpu0.dcache.ReadReq_mshr_misses::total       448649                       # number of ReadReq MSHR misses
system.cpu0.dcache.ReadReq_mshr_miss_latency::.cpu0.data   6251117500                       # number of ReadReq MSHR miss cycles
system.cpu0.dcache.ReadReq_mshr_miss_latency::total   6251117500                       # number of ReadReq MSHR miss cycles
system.cpu0.dcache.ReadReq_mshr_miss_rate::.cpu0.data     0.184607                       # mshr miss rate for ReadReq accesses
system.cpu0.dcache.ReadReq_mshr_miss_rate::total     0.184607                       # mshr miss rate for ReadReq accesses
system.cpu0.dcache.ReadReq_avg_mshr_miss_latency::.cpu0.data 13933.202793                       # average ReadReq mshr miss latency
system.cpu0.dcache.ReadReq_avg_mshr_miss_latency::total 13933.202793                       # average ReadReq mshr miss latency
system.cpu0.dcache.WriteReq_hits::.cpu0.data      1438502                       # number of WriteReq hits
system.cpu0.dcache.WriteReq_hits::total       1438502                       # number of WriteReq hits
system.cpu0.dcache.WriteReq_misses::.cpu0.data       255883                       # number of WriteReq misses
system.cpu0.dcache.WriteReq_misses::total       255883                       # number of WriteReq misses
system.cpu0.dcache.WriteReq_miss_latency::.cpu0.data   7052878500                       # number of WriteReq miss cycles
system.cpu0.dcache.WriteReq_miss_latency::total   7052878500                       # number of WriteReq miss cycles
system.cpu0.dcache.WriteReq_accesses::.cpu0.data      1694385                       # number of WriteReq accesses(hits+misses)
system.cpu0.dcache.WriteReq_accesses::total      1694385                       # number of WriteReq accesses(hits+misses)
system.cpu0.dcache.WriteReq_miss_rate::.cpu0.data     0.151018                       # miss rate for WriteReq accesses
system.cpu0.dcache.WriteReq_miss_rate::total     0.151018                       # miss rate for WriteReq accesses
system.cpu0.dcache.WriteReq_avg_miss_latency::.cpu0.data 27562.903749                       # average WriteReq miss latency
system.cpu0.dcache.WriteReq_avg_miss_latency::total 27562.903749                       # average WriteReq miss latency
system.cpu0.dcache.WriteReq_mshr_hits::.cpu0.data        67229                       # number of WriteReq MSHR hits
system.cpu0.dcache.WriteReq_mshr_hits::total        67229                       # number of WriteReq MSHR hits
system.cpu0.dcache.WriteReq_mshr_misses::.cpu0.data       188654                       # number of WriteReq MSHR misses
system.cpu0.dcache.WriteReq_mshr_misses::total       188654                       # number of WriteReq MSHR misses
system.cpu0.dcache.WriteReq_mshr_miss_latency::.cpu0.data   4772404500                       # number of WriteReq MSHR miss cycles
system.cpu0.dcache.WriteReq_mshr_miss_latency::total   4772404500                       # number of WriteReq MSHR miss cycles
system.cpu0.dcache.WriteReq_mshr_miss_rate::.cpu0.data     0.111341                       # mshr miss rate for WriteReq accesses
system.cpu0.dcache.WriteReq_mshr_miss_rate::total     0.111341                       # mshr miss rate for WriteReq accesses
system.cpu0.dcache.WriteReq_avg_mshr_miss_latency::.cpu0.data 25297.128606                       # average WriteReq mshr miss latency
system.cpu0.dcache.WriteReq_avg_mshr_miss_latency::total 25297.128606                       # average WriteReq mshr miss latency
system.cpu0.dcache.power_state.pwrStateResidencyTicks::UNDEFINED  33193129000                       # Cumulative time (in ticks) in various power states
system.cpu0.dcache.tags.tagsinuse           15.999588                       # Cycle average of tags in use
system.cpu0.dcache.tags.total_refs            4039360                       # Total number of references to valid blocks.
system.cpu0.dcache.tags.sampled_refs           637303                       # Sample count of references to valid blocks.
system.cpu0.dcache.tags.avg_refs             6.338210                       # Average number of references to valid blocks.
system.cpu0.dcache.tags.warmup_cycle           178500                       # Cycle when the warmup percentage was hit.
system.cpu0.dcache.tags.occ_blocks::.cpu0.data    15.999588                       # Average occupied blocks per requestor
system.cpu0.dcache.tags.occ_percent::.cpu0.data     0.999974                       # Average percentage of cache occupancy
system.cpu0.dcache.tags.occ_percent::total     0.999974                       # Average percentage of cache occupancy
system.cpu0.dcache.tags.occ_task_id_blocks::1024           16                       # Occupied blocks per task id
system.cpu0.dcache.tags.age_task_id_blocks_1024::0           16                       # Occupied blocks per task id
system.cpu0.dcache.tags.occ_task_id_percent::1024            1                       # Percentage of cache occupancy per task id
system.cpu0.dcache.tags.tag_accesses         33634775                       # Number of tag accesses
system.cpu0.dcache.tags.data_accesses        33634775                       # Number of data accesses
system.cpu0.dcache.tags.power_state.pwrStateResidencyTicks::UNDEFINED  33193129000                       # Cumulative time (in ticks) in various power states
system.cpu0.power_state.pwrStateResidencyTicks::ON  33193129000                       # Cumulative time (in ticks) in various power states
system.cpu0.itb.walker.power_state.pwrStateResidencyTicks::UNDEFINED  33193129000                       # Cumulative time (in ticks) in various power states
system.cpu1.icache.demand_hits::.cpu1.inst      4245778                       # number of demand (read+write) hits
system.cpu1.icache.demand_hits::total         4245778                       # number of demand (read+write) hits
system.cpu1.icache.overall_hits::.cpu1.inst      4245778                       # number of overall hits
system.cpu1.icache.overall_hits::total        4245778                       # number of overall hits
system.cpu1.icache.demand_misses::.cpu1.inst        72258                       # number of demand (read+write) misses
system.cpu1.icache.demand_misses::total         72258                       # number of demand (read+write) misses
system.cpu1.icache.overall_misses::.cpu1.inst        72258                       # number of overall misses
system.cpu1.icache.overall_misses::total        72258                       # number of overall misses
system.cpu1.icache.demand_miss_latency::.cpu1.inst   1553981000                       # number of demand (read+write) miss cycles
system.cpu1.icache.demand_miss_latency::total   1553981000                       # number of demand (read+write) miss cycles
system.cpu1.icache.overall_miss_latency::.cpu1.inst   1553981000                       # number of overall miss cycles
system.cpu1.icache.overall_miss_latency::total   1553981000                       # number of overall miss cycles
system.cpu1.icache.demand_accesses::.cpu1.inst      4318036                       # number of demand (read+write) accesses
system.cpu1.icache.demand_accesses::total      4318036                       # number of demand (read+write) accesses
system.cpu1.icache.overall_accesses::.cpu1.inst      4318036                       # number of overall (read+write) accesses
system.cpu1.icache.overall_accesses::total      4318036                       # number of overall (read+write) accesses
system.cpu1.icache.demand_miss_rate::.cpu1.inst     0.016734                       # miss rate for demand accesses
system.cpu1.icache.demand_miss_rate::total     0.016734                       # miss rate for demand accesses
system.cpu1.icache.overall_miss_rate::.cpu1.inst     0.016734                       # miss rate for overall accesses
system.cpu1.icache.overall_miss_rate::total     0.016734                       # miss rate for overall accesses
system.cpu1.icache.demand_avg_miss_latency::.cpu1.inst 21506.006255                       # average overall miss latency
system.cpu1.icache.demand_avg_miss_latency::total 21506.006255                       # average overall miss latency
system.cpu1.icache.overall_avg_miss_latency::.cpu1.inst 21506.006255                       # average overall miss latency
system.cpu1.icache.overall_avg_miss_latency::total 21506.006255                       # average overall miss latency
system.cpu1.icache.blocked_cycles::no_mshrs            0                       # number of cycles access was blocked
system.cpu1.icache.blocked_cycles::no_targets            0                       # number of cycles access was blocked
system.cpu1.icache.blocked::no_mshrs                0                       # number of cycles access was blocked
system.cpu1.icache.blocked::no_targets              0                       # number of cycles access was blocked
system.cpu1.icache.avg_blocked_cycles::no_mshrs          nan                       # average number of cycles each access was blocked
system.cpu1.icache.avg_blocked_cycles::no_targets          nan                       # average number of cycles each access was blocked
system.cpu1.icache.writebacks::.writebacks        72242                       # number of writebacks
system.cpu1.icache.writebacks::total            72242                       # number of writebacks
system.cpu1.icache.demand_mshr_misses::.cpu1.inst        72258                       # number of demand (read+write) MSHR misses
system.cpu1.icache.demand_mshr_misses::total        72258                       # number of demand (read+write) MSHR misses
system.cpu1.icache.overall_mshr_misses::.cpu1.inst        72258                       # number of overall MSHR misses
system.cpu1.icache.overall_mshr_misses::total        72258                       # number of overall MSHR misses
system.cpu1.icache.demand_mshr_miss_latency::.cpu1.inst   1481723000                       # number of demand (read+write) MSHR miss cycles
system.cpu1.icache.demand_mshr_miss_latency::total   1481723000                       # number of demand (read+write) MSHR miss cycles
system.cpu1.icache.overall_mshr_miss_latency::.cpu1.inst   1481723000                       # number of overall MSHR miss cycles
system.cpu1.icache.overall_mshr_miss_latency::total   1481723000                       # number of overall MSHR miss cycles
system.cpu1.icache.demand_mshr_miss_rate::.cpu1.inst     0.016734                       # mshr miss rate for demand accesses
system.cpu1.icache.demand_mshr_miss_rate::total     0.016734                       # mshr miss rate for demand accesses
system.cpu1.icache.overall_mshr_miss_rate::.cpu1.inst     0.016734                       # mshr miss rate for overall accesses
system.cpu1.icache.overall_mshr_miss_rate::total     0.016734                       # mshr miss rate for overall accesses
system.cpu1.icache.demand_avg_mshr_miss_latency::.cpu1.inst 20506.006255                       # average overall mshr miss latency
system.cpu1.icache.demand_avg_mshr_miss_latency::total 20506.006255                       # average overall mshr miss latency
system.cpu1.icache.overall_avg_mshr_miss_latency::.cpu1.inst 20506.006255                       # average overall mshr miss latency
system.cpu1.icache.overall_avg_mshr_miss_latency::total 20506.006255                       # average overall mshr miss latency
system.cpu1.icache.replacements                 72242                       # number of replacements
system.cpu1.icache.ReadReq_hits::.cpu1.inst      4245778                       # number of ReadReq hits
system.cpu1.icache.ReadReq_hits::total        4245778                       # number of ReadReq hits
system.cpu1.icache.ReadReq_misses::.cpu1.inst        72258                       # number of ReadReq misses
system.cpu1.icache.ReadReq_misses::total        72258                       # number of ReadReq misses
system.cpu1.icache.ReadReq_miss_latency::.cpu1.inst   1553981000                       # number of ReadReq miss cycles
system.cpu1.icache.ReadReq_miss_latency::total   1553981000                       # number of ReadReq miss cycles
system.cpu1.icache.ReadReq_accesses::.cpu1.inst      4318036                       # number of ReadReq accesses(hits+misses)
system.cpu1.icache.ReadReq_accesses::total      4318036                       # number of ReadReq accesses(hits+misses)
system.cpu1.icache.ReadReq_miss_rate::.cpu1.inst     0.016734                       # miss rate for ReadReq accesses
system.cpu1.icache.ReadReq_miss_rate::total     0.016734                       # miss rate for ReadReq accesses
system.cpu1.icache.ReadReq_avg_miss_latency::.cpu1.inst 21506.006255                       # average ReadReq miss latency
system.cpu1.icache.ReadReq_avg_miss_latency::total 21506.006255                       # average ReadReq miss latency
system.cpu1.icache.ReadReq_mshr_misses::.cpu1.inst        72258                       # number of ReadReq MSHR misses
system.cpu1.icache.ReadReq_mshr_misses::total        72258                       # number of ReadReq MSHR misses
system.cpu1.icache.ReadReq_mshr_miss_latency::.cpu1.inst   1481723000                       # number of ReadReq MSHR miss cycles
system.cpu1.icache.ReadReq_mshr_miss_latency::total   1481723000                       # number of ReadReq MSHR miss cycles
system.cpu1.icache.ReadReq_mshr_miss_rate::.cpu1.inst     0.016734                       # mshr miss rate for ReadReq accesses
system.cpu1.icache.ReadReq_mshr_miss_rate::total     0.016734                       # mshr miss rate for ReadReq accesses
system.cpu1.icache.ReadReq_avg_mshr_miss_latency::.cpu1.inst 20506.006255                       # average ReadReq mshr miss latency
system.cpu1.icache.ReadReq_avg_mshr_miss_latency::total 20506.006255                       # average ReadReq mshr miss latency
system.cpu1.icache.power_state.pwrStateResidencyTicks::UNDEFINED  33193129000                       # Cumulative time (in ticks) in various power states
system.cpu1.icache.tags.tagsinuse           15.999552                       # Cycle average of tags in use
system.cpu1.icache.tags.total_refs            4318036                       # Total number of references to valid blocks.
system.cpu1.icache.tags.sampled_refs            72258                       # Sample count of references to valid blocks.
system.cpu1.icache.tags.avg_refs            59.758587                       # Average number of references to valid blocks.
system.cpu1.icache.tags.warmup_cycle            92500                       # Cycle when the warmup percentage was hit.
system.cpu1.icache.tags.occ_blocks::.cpu1.inst    15.999552                       # Average occupied blocks per requestor
system.cpu1.icache.tags.occ_percent::.cpu1.inst     0.999972                       # Average percentage of cache occupancy
system.cpu1.icache.tags.occ_percent::total     0.999972                       # Average percentage of cache occupancy
system.cpu1.icache.tags.occ_task_id_blocks::1024           16                       # Occupied blocks per task id
system.cpu1.icache.tags.age_task_id_blocks_1024::1           15                       # Occupied blocks per task id
system.cpu1.icache.tags.age_task_id_blocks_1024::2            1                       # Occupied blocks per task id
system.cpu1.icache.tags.occ_task_id_percent::1024            1                       # Percentage of cache occupancy per task id
system.cpu1.icache.tags.tag_accesses         34616546                       # Number of tag accesses
system.cpu1.icache.tags.data_accesses        34616546                       # Number of data accesses
system.cpu1.icache.tags.power_state.pwrStateResidencyTicks::UNDEFINED  33193129000                       # Cumulative time (in ticks) in various power states
system.cpu1.dtb.walker.power_state.pwrStateResidencyTicks::UNDEFINED  33193129000                       # Cumulative time (in ticks) in various power states
system.cpu1.interrupts.clk_domain.clock          8000                       # Clock period in ticks
system.cpu1.itb_walker_cache.blocked_cycles::no_mshrs            0                       # number of cycles access was blocked
system.cpu1.itb_walker_cache.blocked_cycles::no_targets            0                       # number of cycles access was blocked
system.cpu1.itb_walker_cache.blocked::no_mshrs            0                       # number of cycles access was blocked
system.cpu1.itb_walker_cache.blocked::no_targets            0                       # number of cycles access was blocked
system.cpu1.itb_walker_cache.avg_blocked_cycles::no_mshrs          nan                       # average number of cycles each access was blocked
system.cpu1.itb_walker_cache.avg_blocked_cycles::no_targets          nan                       # average number of cycles each access was blocked
system.cpu1.itb_walker_cache.replacements            0                       # number of replacements
system.cpu1.itb_walker_cache.power_state.pwrStateResidencyTicks::UNDEFINED  33193129000                       # Cumulative time (in ticks) in various power states
system.cpu1.itb_walker_cache.tags.tagsinuse            0                       # Cycle average of tags in use
system.cpu1.itb_walker_cache.tags.total_refs            0                       # Total number of references to valid blocks.
system.cpu1.itb_walker_cache.tags.sampled_refs            0                       # Sample count of references to valid blocks.
system.cpu1.itb_walker_cache.tags.avg_refs          nan                       # Average number of references to valid blocks.
system.cpu1.itb_walker_cache.tags.warmup_cycle            0                       # Cycle when the warmup percentage was hit.
system.cpu1.itb_walker_cache.tags.tag_accesses            0                       # Number of tag accesses
system.cpu1.itb_walker_cache.tags.data_accesses            0                       # Number of data accesses
system.cpu1.itb_walker_cache.tags.power_state.pwrStateResidencyTicks::UNDEFINED  33193129000                       # Cumulative time (in ticks) in various power states
system.cpu1.dtb_walker_cache.blocked_cycles::no_mshrs            0                       # number of cycles access was blocked
system.cpu1.dtb_walker_cache.blocked_cycles::no_targets            0                       # number of cycles access was blocked
system.cpu1.dtb_walker_cache.blocked::no_mshrs            0                       # number of cycles access was blocked
system.cpu1.dtb_walker_cache.blocked::no_targets            0                       # number of cycles access was blocked
system.cpu1.dtb_walker_cache.avg_blocked_cycles::no_mshrs          nan                       # average number of cycles each access was blocked
system.cpu1.dtb_walker_cache.avg_blocked_cycles::no_targets          nan                       # average number of cycles each access was blocked
system.cpu1.dtb_walker_cache.replacements            0                       # number of replacements
system.cpu1.dtb_walker_cache.power_state.pwrStateResidencyTicks::UNDEFINED  33193129000                       # Cumulative time (in ticks) in various power states
system.cpu1.dtb_walker_cache.tags.tagsinuse            0                       # Cycle average of tags in use
system.cpu1.dtb_walker_cache.tags.total_refs            0                       # Total number of references to valid blocks.
system.cpu1.dtb_walker_cache.tags.sampled_refs            0                       # Sample count of references to valid blocks.
system.cpu1.dtb_walker_cache.tags.avg_refs          nan                       # Average number of references to valid blocks.
system.cpu1.dtb_walker_cache.tags.warmup_cycle            0                       # Cycle when the warmup percentage was hit.
system.cpu1.dtb_walker_cache.tags.tag_accesses            0                       # Number of tag accesses
system.cpu1.dtb_walker_cache.tags.data_accesses            0                       # Number of data accesses
system.cpu1.dtb_walker_cache.tags.power_state.pwrStateResidencyTicks::UNDEFINED  33193129000                       # Cumulative time (in ticks) in various power states
system.cpu1.dcache.demand_hits::.cpu1.data      1635625                       # number of demand (read+write) hits
system.cpu1.dcache.demand_hits::total         1635625                       # number of demand (read+write) hits
system.cpu1.dcache.overall_hits::.cpu1.data      1635682                       # number of overall hits
system.cpu1.dcache.overall_hits::total        1635682                       # number of overall hits
system.cpu1.dcache.demand_misses::.cpu1.data       263599                       # number of demand (read+write) misses
system.cpu1.dcache.demand_misses::total        263599                       # number of demand (read+write) misses
system.cpu1.dcache.overall_misses::.cpu1.data       263656                       # number of overall misses
system.cpu1.dcache.overall_misses::total       263656                       # number of overall misses
system.cpu1.dcache.demand_miss_latency::.cpu1.data  19367588000                       # number of demand (read+write) miss cycles
system.cpu1.dcache.demand_miss_latency::total  19367588000                       # number of demand (read+write) miss cycles
system.cpu1.dcache.overall_miss_latency::.cpu1.data  19367588000                       # number of overall miss cycles
system.cpu1.dcache.overall_miss_latency::total  19367588000                       # number of overall miss cycles
system.cpu1.dcache.demand_accesses::.cpu1.data      1899224                       # number of demand (read+write) accesses
system.cpu1.dcache.demand_accesses::total      1899224                       # number of demand (read+write) accesses
system.cpu1.dcache.overall_accesses::.cpu1.data      1899338                       # number of overall (read+write) accesses
system.cpu1.dcache.overall_accesses::total      1899338                       # number of overall (read+write) accesses
system.cpu1.dcache.demand_miss_rate::.cpu1.data     0.138793                       # miss rate for demand accesses
system.cpu1.dcache.demand_miss_rate::total     0.138793                       # miss rate for demand accesses
system.cpu1.dcache.overall_miss_rate::.cpu1.data     0.138815                       # miss rate for overall accesses
system.cpu1.dcache.overall_miss_rate::total     0.138815                       # miss rate for overall accesses
system.cpu1.dcache.demand_avg_miss_latency::.cpu1.data 73473.677821                       # average overall miss latency
system.cpu1.dcache.demand_avg_miss_latency::total 73473.677821                       # average overall miss latency
system.cpu1.dcache.overall_avg_miss_latency::.cpu1.data 73457.793488                       # average overall miss latency
system.cpu1.dcache.overall_avg_miss_latency::total 73457.793488                       # average overall miss latency
system.cpu1.dcache.blocked_cycles::no_mshrs            0                       # number of cycles access was blocked
system.cpu1.dcache.blocked_cycles::no_targets            0                       # number of cycles access was blocked
system.cpu1.dcache.blocked::no_mshrs                0                       # number of cycles access was blocked
system.cpu1.dcache.blocked::no_targets              0                       # number of cycles access was blocked
system.cpu1.dcache.avg_blocked_cycles::no_mshrs          nan                       # average number of cycles each access was blocked
system.cpu1.dcache.avg_blocked_cycles::no_targets          nan                       # average number of cycles each access was blocked
system.cpu1.dcache.writebacks::.writebacks       111645                       # number of writebacks
system.cpu1.dcache.writebacks::total           111645                       # number of writebacks
system.cpu1.dcache.demand_mshr_hits::.cpu1.data        10112                       # number of demand (read+write) MSHR hits
system.cpu1.dcache.demand_mshr_hits::total        10112                       # number of demand (read+write) MSHR hits
system.cpu1.dcache.overall_mshr_hits::.cpu1.data        10112                       # number of overall MSHR hits
system.cpu1.dcache.overall_mshr_hits::total        10112                       # number of overall MSHR hits
system.cpu1.dcache.demand_mshr_misses::.cpu1.data       253487                       # number of demand (read+write) MSHR misses
system.cpu1.dcache.demand_mshr_misses::total       253487                       # number of demand (read+write) MSHR misses
system.cpu1.dcache.overall_mshr_misses::.cpu1.data       253544                       # number of overall MSHR misses
system.cpu1.dcache.overall_mshr_misses::total       253544                       # number of overall MSHR misses
system.cpu1.dcache.demand_mshr_miss_latency::.cpu1.data  18468705500                       # number of demand (read+write) MSHR miss cycles
system.cpu1.dcache.demand_mshr_miss_latency::total  18468705500                       # number of demand (read+write) MSHR miss cycles
system.cpu1.dcache.overall_mshr_miss_latency::.cpu1.data  18471117500                       # number of overall MSHR miss cycles
system.cpu1.dcache.overall_mshr_miss_latency::total  18471117500                       # number of overall MSHR miss cycles
system.cpu1.dcache.demand_mshr_miss_rate::.cpu1.data     0.133469                       # mshr miss rate for demand accesses
system.cpu1.dcache.demand_mshr_miss_rate::total     0.133469                       # mshr miss rate for demand accesses
system.cpu1.dcache.overall_mshr_miss_rate::.cpu1.data     0.133491                       # mshr miss rate for overall accesses
system.cpu1.dcache.overall_mshr_miss_rate::total     0.133491                       # mshr miss rate for overall accesses
system.cpu1.dcache.demand_avg_mshr_miss_latency::.cpu1.data 72858.590381                       # average overall mshr miss latency
system.cpu1.dcache.demand_avg_mshr_miss_latency::total 72858.590381                       # average overall mshr miss latency
system.cpu1.dcache.overall_avg_mshr_miss_latency::.cpu1.data 72851.723961                       # average overall mshr miss latency
system.cpu1.dcache.overall_avg_mshr_miss_latency::total 72851.723961                       # average overall mshr miss latency
system.cpu1.dcache.replacements                253527                       # number of replacements
system.cpu1.dcache.ReadReq_hits::.cpu1.data      1094395                       # number of ReadReq hits
system.cpu1.dcache.ReadReq_hits::total        1094395                       # number of ReadReq hits
system.cpu1.dcache.ReadReq_misses::.cpu1.data       243267                       # number of ReadReq misses
system.cpu1.dcache.ReadReq_misses::total       243267                       # number of ReadReq misses
system.cpu1.dcache.ReadReq_miss_latency::.cpu1.data  18031410000                       # number of ReadReq miss cycles
system.cpu1.dcache.ReadReq_miss_latency::total  18031410000                       # number of ReadReq miss cycles
system.cpu1.dcache.ReadReq_accesses::.cpu1.data      1337662                       # number of ReadReq accesses(hits+misses)
system.cpu1.dcache.ReadReq_accesses::total      1337662                       # number of ReadReq accesses(hits+misses)
system.cpu1.dcache.ReadReq_miss_rate::.cpu1.data     0.181860                       # miss rate for ReadReq accesses
system.cpu1.dcache.ReadReq_miss_rate::total     0.181860                       # miss rate for ReadReq accesses
system.cpu1.dcache.ReadReq_avg_miss_latency::.cpu1.data 74121.890762                       # average ReadReq miss latency
system.cpu1.dcache.ReadReq_avg_miss_latency::total 74121.890762                       # average ReadReq miss latency
system.cpu1.dcache.ReadReq_mshr_hits::.cpu1.data         1468                       # number of ReadReq MSHR hits
system.cpu1.dcache.ReadReq_mshr_hits::total         1468                       # number of ReadReq MSHR hits
system.cpu1.dcache.ReadReq_mshr_misses::.cpu1.data       241799                       # number of ReadReq MSHR misses
system.cpu1.dcache.ReadReq_mshr_misses::total       241799                       # number of ReadReq MSHR misses
system.cpu1.dcache.ReadReq_mshr_miss_latency::.cpu1.data  17709131000                       # number of ReadReq MSHR miss cycles
system.cpu1.dcache.ReadReq_mshr_miss_latency::total  17709131000                       # number of ReadReq MSHR miss cycles
system.cpu1.dcache.ReadReq_mshr_miss_rate::.cpu1.data     0.180762                       # mshr miss rate for ReadReq accesses
system.cpu1.dcache.ReadReq_mshr_miss_rate::total     0.180762                       # mshr miss rate for ReadReq accesses
system.cpu1.dcache.ReadReq_avg_mshr_miss_latency::.cpu1.data 73239.058061                       # average ReadReq mshr miss latency
system.cpu1.dcache.ReadReq_avg_mshr_miss_latency::total 73239.058061                       # average ReadReq mshr miss latency
system.cpu1.dcache.WriteReq_hits::.cpu1.data       541230                       # number of WriteReq hits
system.cpu1.dcache.WriteReq_hits::total        541230                       # number of WriteReq hits
system.cpu1.dcache.WriteReq_misses::.cpu1.data        20332                       # number of WriteReq misses
system.cpu1.dcache.WriteReq_misses::total        20332                       # number of WriteReq misses
system.cpu1.dcache.WriteReq_miss_latency::.cpu1.data   1336178000                       # number of WriteReq miss cycles
system.cpu1.dcache.WriteReq_miss_latency::total   1336178000                       # number of WriteReq miss cycles
system.cpu1.dcache.WriteReq_accesses::.cpu1.data       561562                       # number of WriteReq accesses(hits+misses)
system.cpu1.dcache.WriteReq_accesses::total       561562                       # number of WriteReq accesses(hits+misses)
[...]
system.mem_ctrls.bytesPerActivate::total        60165                       # Bytes accessed per row activation
system.mem_ctrls.rdPerTurnAround::samples         8002                       # Reads before turning the bus around for writes
system.mem_ctrls.rdPerTurnAround::mean      35.212322                       # Reads before turning the bus around for writes
system.mem_ctrls.rdPerTurnAround::gmean     24.876314                       # Reads before turning the bus around for writes
system.mem_ctrls.rdPerTurnAround::stdev     40.404059                       # Reads before turning the bus around for writes
system.mem_ctrls.rdPerTurnAround::0-31           6210     77.61%     77.61% # Reads before turning the bus around for writes
system.mem_ctrls.rdPerTurnAround::32-63           454      5.67%     83.28% # Reads before turning the bus around for writes
system.mem_ctrls.rdPerTurnAround::64-95           545      6.81%     90.09% # Reads before turning the bus around for writes
system.mem_ctrls.rdPerTurnAround::96-127          475      5.94%     96.03% # Reads before turning the bus around for writes
system.mem_ctrls.rdPerTurnAround::128-159          268      3.35%     99.38% # Reads before turning the bus around for writes
system.mem_ctrls.rdPerTurnAround::160-191           19      0.24%     99.61% # Reads before turning the bus around for writes
system.mem_ctrls.rdPerTurnAround::192-223            5      0.06%     99.68% # Reads before turning the bus around for writes
system.mem_ctrls.rdPerTurnAround::224-255            3      0.04%     99.71% # Reads before turning the bus around for writes
system.mem_ctrls.rdPerTurnAround::256-287            2      0.02%     99.74% # Reads before turning the bus around for writes
system.mem_ctrls.rdPerTurnAround::288-319            5      0.06%     99.80% # Reads before turning the bus around for writes
system.mem_ctrls.rdPerTurnAround::320-351            3      0.04%     99.84% # Reads before turning the bus around for writes
system.mem_ctrls.rdPerTurnAround::352-383            4      0.05%     99.89% # Reads before turning the bus around for writes
system.mem_ctrls.rdPerTurnAround::384-415            3      0.04%     99.93% # Reads before turning the bus around for writes
system.mem_ctrls.rdPerTurnAround::416-447            2      0.02%     99.95% # Reads before turning the bus around for writes
system.mem_ctrls.rdPerTurnAround::448-479            1      0.01%     99.96% # Reads before turning the bus around for writes
system.mem_ctrls.rdPerTurnAround::512-543            1      0.01%     99.98% # Reads before turning the bus around for writes
system.mem_ctrls.rdPerTurnAround::576-607            1      0.01%     99.99% # Reads before turning the bus around for writes
system.mem_ctrls.rdPerTurnAround::672-703            1      0.01%    100.00% # Reads before turning the bus around for writes
system.mem_ctrls.rdPerTurnAround::total          8002                       # Reads before turning the bus around for writes
system.mem_ctrls.wrPerTurnAround::samples         8002                       # Writes before turning the bus around for reads
system.mem_ctrls.wrPerTurnAround::mean      16.634716                       # Writes before turning the bus around for reads
system.mem_ctrls.wrPerTurnAround::gmean     16.608310                       # Writes before turning the bus around for reads
system.mem_ctrls.wrPerTurnAround::stdev      0.955011                       # Writes before turning the bus around for reads
system.mem_ctrls.wrPerTurnAround::16             5384     67.28%     67.28% # Writes before turning the bus around for reads
system.mem_ctrls.wrPerTurnAround::17              384      4.80%     72.08% # Writes before turning the bus around for reads
system.mem_ctrls.wrPerTurnAround::18             2035     25.43%     97.51% # Writes before turning the bus around for reads
system.mem_ctrls.wrPerTurnAround::19              175      2.19%     99.70% # Writes before turning the bus around for reads
system.mem_ctrls.wrPerTurnAround::20               21      0.26%     99.96% # Writes before turning the bus around for reads
system.mem_ctrls.wrPerTurnAround::21                2      0.02%     99.99% # Writes before turning the bus around for reads
system.mem_ctrls.wrPerTurnAround::22                1      0.01%    100.00% # Writes before turning the bus around for reads
system.mem_ctrls.wrPerTurnAround::total          8002                       # Writes before turning the bus around for reads
system.mem_ctrls.bytesReadDRAM               18038656                       # Total number of bytes read from DRAM
system.mem_ctrls.bytesReadWrQ                   77824                       # Total number of bytes read from write queue
system.mem_ctrls.bytesWritten                 8519104                       # Total number of bytes written to DRAM
system.mem_ctrls.bytesReadSys                18116480                       # Total read bytes from the system interface side
system.mem_ctrls.bytesWrittenSys              8522368                       # Total written bytes from the system interface side
system.mem_ctrls.avgRdBW                       543.45                       # Average DRAM read bandwidth in MiByte/s
system.mem_ctrls.avgWrBW                       256.65                       # Average achieved write bandwidth in MiByte/s
system.mem_ctrls.avgRdBWSys                    545.79                       # Average system read bandwidth in MiByte/s
system.mem_ctrls.avgWrBWSys                    256.75                       # Average system write bandwidth in MiByte/s
system.mem_ctrls.peakBW                      12800.00                       # Theoretical peak bandwidth in MiByte/s
system.mem_ctrls.busUtil                         6.25                       # Data bus utilization in percentage
system.mem_ctrls.busUtilRead                     4.25                       # Data bus utilization in percentage for reads
system.mem_ctrls.busUtilWrite                    2.01                       # Data bus utilization in percentage for writes
system.mem_ctrls.totGap                   33192885500                       # Total gap between requests
system.mem_ctrls.avgGap                      79746.12                       # Average gap between requests
system.mem_ctrls.masterReadBytes::.cpu0.inst       120832                       # Per-master bytes read from memory
system.mem_ctrls.masterReadBytes::.cpu0.data      2665536                       # Per-master bytes read from memory
system.mem_ctrls.masterReadBytes::.cpu1.inst       491072                       # Per-master bytes read from memory
system.mem_ctrls.masterReadBytes::.cpu1.data     14761216                       # Per-master bytes read from memory
system.mem_ctrls.masterWriteBytes::.writebacks      8519104                       # Per-master bytes write to memory
system.mem_ctrls.masterReadRate::.cpu0.inst 3640271.454974913504                       # Per-master bytes read from memory rate (Bytes/sec)
system.mem_ctrls.masterReadRate::.cpu0.data 80303848.425979956985                       # Per-master bytes read from memory rate (Bytes/sec)
system.mem_ctrls.masterReadRate::.cpu1.inst 14794387.115478023887                       # Per-master bytes read from memory rate (Bytes/sec)
system.mem_ctrls.masterReadRate::.cpu1.data 444706975.350229859352                       # Per-master bytes read from memory rate (Bytes/sec)
system.mem_ctrls.masterWriteRate::.writebacks 256652634.344897091389                       # Per-master bytes write to memory rate (Bytes/sec)
system.mem_ctrls.masterReadAccesses::.cpu0.inst         1888                       # Per-master read serviced memory accesses
system.mem_ctrls.masterReadAccesses::.cpu0.data        41660                       # Per-master read serviced memory accesses
system.mem_ctrls.masterReadAccesses::.cpu1.inst         7673                       # Per-master read serviced memory accesses
system.mem_ctrls.masterReadAccesses::.cpu1.data       231849                       # Per-master read serviced memory accesses
system.mem_ctrls.masterWriteAccesses::.writebacks       133162                       # Per-master write serviced memory accesses
system.mem_ctrls.masterReadTotalLat::.cpu0.inst     56334750                       # Per-master read total memory access latency
system.mem_ctrls.masterReadTotalLat::.cpu0.data   1384990000                       # Per-master read total memory access latency
system.mem_ctrls.masterReadTotalLat::.cpu1.inst    230885750                       # Per-master read total memory access latency
system.mem_ctrls.masterReadTotalLat::.cpu1.data   5988574750                       # Per-master read total memory access latency
system.mem_ctrls.masterWriteTotalLat::.writebacks 807263669000                       # Per-master write total memory access latency
system.mem_ctrls.masterReadAvgLat::.cpu0.inst     29838.32                       # Per-master read average memory access latency
system.mem_ctrls.masterReadAvgLat::.cpu0.data     33245.08                       # Per-master read average memory access latency
system.mem_ctrls.masterReadAvgLat::.cpu1.inst     30090.68                       # Per-master read average memory access latency
system.mem_ctrls.masterReadAvgLat::.cpu1.data     25829.63                       # Per-master read average memory access latency
system.mem_ctrls.masterWriteAvgLat::.writebacks   6062267.53                       # Per-master write average memory access latency
system.mem_ctrls.pageHitRate                    85.50                       # Row buffer hit rate, read and write combined
system.mem_ctrls.rank1.actEnergy            174315960                       # Energy for activate commands per rank (pJ)
system.mem_ctrls.rank1.preEnergy             92647335                       # Energy for precharge commands per rank (pJ)
system.mem_ctrls.rank1.readEnergy           785078700                       # Energy for read commands per rank (pJ)
system.mem_ctrls.rank1.writeEnergy          268871760                       # Energy for write commands per rank (pJ)
system.mem_ctrls.rank1.refreshEnergy     2620210320.000000                       # Energy for refresh commands per rank (pJ)
system.mem_ctrls.rank1.actBackEnergy      11825063250                       # Energy for active background per rank (pJ)
system.mem_ctrls.rank1.preBackEnergy       2788213920                       # Energy for precharge background per rank (pJ)
system.mem_ctrls.rank1.actPowerDownEnergy            0                       # Energy for active power-down per rank (pJ)
system.mem_ctrls.rank1.prePowerDownEnergy            0                       # Energy for precharge power-down per rank (pJ)
system.mem_ctrls.rank1.selfRefreshEnergy            0                       # Energy for self refresh per rank (pJ)
system.mem_ctrls.rank1.totalEnergy        18554401245                       # Total energy per rank (pJ)
system.mem_ctrls.rank1.averagePower        558.983193                       # Core power per rank (mW)
system.mem_ctrls.rank1.totalIdleTime                0                       # Total Idle time Per DRAM Rank
system.mem_ctrls.rank1.memoryStateTime::IDLE   7118201250                       # Time in different power states
system.mem_ctrls.rank1.memoryStateTime::REF   1108380000                       # Time in different power states
system.mem_ctrls.rank1.memoryStateTime::SREF            0                       # Time in different power states
system.mem_ctrls.rank1.memoryStateTime::PRE_PDN            0                       # Time in different power states
system.mem_ctrls.rank1.memoryStateTime::ACT  24966547750                       # Time in different power states
system.mem_ctrls.rank1.memoryStateTime::ACT_PDN            0                       # Time in different power states
system.mem_ctrls.rank0.actEnergy            255269280                       # Energy for activate commands per rank (pJ)
system.mem_ctrls.rank0.preEnergy            135678840                       # Energy for precharge commands per rank (pJ)
system.mem_ctrls.rank0.readEnergy          1227358860                       # Energy for read commands per rank (pJ)
system.mem_ctrls.rank0.writeEnergy          425967660                       # Energy for write commands per rank (pJ)
system.mem_ctrls.rank0.refreshEnergy     2620210320.000000                       # Energy for refresh commands per rank (pJ)
system.mem_ctrls.rank0.actBackEnergy      13405458360                       # Energy for active background per rank (pJ)
system.mem_ctrls.rank0.preBackEnergy       1457354880                       # Energy for precharge background per rank (pJ)
system.mem_ctrls.rank0.actPowerDownEnergy            0                       # Energy for active power-down per rank (pJ)
system.mem_ctrls.rank0.prePowerDownEnergy            0                       # Energy for precharge power-down per rank (pJ)
system.mem_ctrls.rank0.selfRefreshEnergy            0                       # Energy for self refresh per rank (pJ)
system.mem_ctrls.rank0.totalEnergy        19527298200                       # Total energy per rank (pJ)
system.mem_ctrls.rank0.averagePower        588.293384                       # Core power per rank (mW)
system.mem_ctrls.rank0.totalIdleTime                0                       # Total Idle time Per DRAM Rank
system.mem_ctrls.rank0.memoryStateTime::IDLE   3647282500                       # Time in different power states
system.mem_ctrls.rank0.memoryStateTime::REF   1108380000                       # Time in different power states
system.mem_ctrls.rank0.memoryStateTime::SREF            0                       # Time in different power states
system.mem_ctrls.rank0.memoryStateTime::PRE_PDN            0                       # Time in different power states
system.mem_ctrls.rank0.memoryStateTime::ACT  28437466500                       # Time in different power states
system.mem_ctrls.rank0.memoryStateTime::ACT_PDN            0                       # Time in different power states
system.mem_ctrls.power_state.pwrStateResidencyTicks::UNDEFINED  33193129000                       # Cumulative time (in ticks) in various power states
system.cpu_clk_domain.clock                       500                       # Clock period in ticks
system.tol2bus.trans_dist::ReadResp           2398774                       # Transaction distribution
system.tol2bus.trans_dist::WritebackDirty       671357                       # Transaction distribution
system.tol2bus.trans_dist::WritebackClean      1708238                       # Transaction distribution
system.tol2bus.trans_dist::CleanEvict          502289                       # Transaction distribution
system.tol2bus.trans_dist::ReadExReq           200342                       # Transaction distribution
system.tol2bus.trans_dist::ReadExResp          200342                       # Transaction distribution
system.tol2bus.trans_dist::ReadCleanReq       1708270                       # Transaction distribution
system.tol2bus.trans_dist::ReadSharedReq       690505                       # Transaction distribution
system.tol2bus.pkt_count_system.cpu0.icache.mem_side::system.l2.cpu_side      4908020                       # Packet count per connected master and slave (bytes)
system.tol2bus.pkt_count_system.cpu0.dcache.mem_side::system.l2.cpu_side      1911893                       # Packet count per connected master and slave (bytes)
system.tol2bus.pkt_count_system.cpu1.icache.mem_side::system.l2.cpu_side       216758                       # Packet count per connected master and slave (bytes)
system.tol2bus.pkt_count_system.cpu1.dcache.mem_side::system.l2.cpu_side       760614                       # Packet count per connected master and slave (bytes)
system.tol2bus.pkt_count::total               7797285                       # Packet count per connected master and slave (bytes)
system.tol2bus.pkt_size_system.cpu0.icache.mem_side::system.l2.cpu_side    209408512                       # Cumulative packet size per connected master and slave (bytes)
system.tol2bus.pkt_size_system.cpu0.dcache.mem_side::system.l2.cpu_side     68086592                       # Cumulative packet size per connected master and slave (bytes)
system.tol2bus.pkt_size_system.cpu1.icache.mem_side::system.l2.cpu_side      9248000                       # Cumulative packet size per connected master and slave (bytes)
system.tol2bus.pkt_size_system.cpu1.dcache.mem_side::system.l2.cpu_side     23372032                       # Cumulative packet size per connected master and slave (bytes)
system.tol2bus.pkt_size::total              310115136                       # Cumulative packet size per connected master and slave (bytes)
system.tol2bus.snoops                          282832                       # Total snoops (count)
system.tol2bus.snoopTraffic                   8522368                       # Total snoop traffic (bytes)
system.tol2bus.snoop_fanout::samples          2881949                       # Request fanout histogram
system.tol2bus.snoop_fanout::mean            0.000307                       # Request fanout histogram
system.tol2bus.snoop_fanout::stdev           0.017511                       # Request fanout histogram
system.tol2bus.snoop_fanout::underflows             0      0.00%      0.00% # Request fanout histogram
system.tol2bus.snoop_fanout::0                2881065     99.97%     99.97% # Request fanout histogram
system.tol2bus.snoop_fanout::1                    884      0.03%    100.00% # Request fanout histogram
system.tol2bus.snoop_fanout::2                      0      0.00%    100.00% # Request fanout histogram
system.tol2bus.snoop_fanout::3                      0      0.00%    100.00% # Request fanout histogram
system.tol2bus.snoop_fanout::4                      0      0.00%    100.00% # Request fanout histogram
system.tol2bus.snoop_fanout::5                      0      0.00%    100.00% # Request fanout histogram
system.tol2bus.snoop_fanout::6                      0      0.00%    100.00% # Request fanout histogram
system.tol2bus.snoop_fanout::7                      0      0.00%    100.00% # Request fanout histogram
system.tol2bus.snoop_fanout::8                      0      0.00%    100.00% # Request fanout histogram
system.tol2bus.snoop_fanout::overflows              0      0.00%    100.00% # Request fanout histogram
system.tol2bus.snoop_fanout::min_value              0                       # Request fanout histogram
system.tol2bus.snoop_fanout::max_value              1                       # Request fanout histogram
system.tol2bus.snoop_fanout::total            2881949                       # Request fanout histogram
system.tol2bus.reqLayer0.occupancy         4845517500                       # Layer occupancy (ticks)
system.tol2bus.reqLayer0.utilization             14.6                       # Layer utilization (%)
system.tol2bus.respLayer5.occupancy         384255103                       # Layer occupancy (ticks)
system.tol2bus.respLayer5.utilization             1.2                       # Layer utilization (%)
system.tol2bus.respLayer4.occupancy         108534205                       # Layer occupancy (ticks)
system.tol2bus.respLayer4.utilization             0.3                       # Layer utilization (%)
system.tol2bus.respLayer1.occupancy         956029848                       # Layer occupancy (ticks)
system.tol2bus.respLayer1.utilization             2.9                       # Layer utilization (%)
system.tol2bus.respLayer0.occupancy        2454089856                       # Layer occupancy (ticks)
system.tol2bus.respLayer0.utilization             7.4                       # Layer utilization (%)
system.tol2bus.power_state.pwrStateResidencyTicks::UNDEFINED  33193129000                       # Cumulative time (in ticks) in various power states

---------- End Simulation Statistics   ----------
