
---------- Begin Simulation Statistics ----------
final_tick                                33517523500                       # Number of ticks from beginning of simulation (restored from checkpoints and never reset)
host_inst_rate                                 185888                       # Simulator instruction rate (inst/s)
host_mem_usage                                4425528                       # Number of bytes of host memory used
host_op_rate                                   348835                       # Simulator op (including micro ops) rate (op/s)
host_seconds                                    72.03                       # Real time elapsed on the host
host_tick_rate                              465307572                       # Simulator tick rate (ticks/s)
sim_freq                                 1000000000000                       # Frequency of simulated ticks
sim_insts                                    13390087                       # Number of instructions simulated
sim_ops                                      25127633                       # Number of ops (including micro ops) simulated
sim_seconds                                  0.033518                       # Number of seconds simulated
sim_ticks                                 33517523500                       # Number of ticks simulated
system.cpu0.branchPred.BTBCorrect                   0                       # Number of correct BTB predictions (this stat may not work properly.
system.cpu0.branchPred.BTBHitPct                  nan                       # BTB Hit Percentage
system.cpu0.branchPred.BTBHits                      0                       # Number of BTB hits
system.cpu0.branchPred.BTBLookups                   0                       # Number of BTB lookups
system.cpu0.branchPred.RASInCorrect                 0                       # Number of incorrect RAS predictions.
system.cpu0.branchPred.condIncorrect               30                       # Number of conditional branches incorrect
system.cpu0.branchPred.condPredicted               68                       # Number of conditional branches predicted
system.cpu0.branchPred.indirectHits                 0                       # Number of indirect target hits.
system.cpu0.branchPred.indirectLookups             21                       # Number of indirect predictor lookups.
system.cpu0.branchPred.indirectMisses              21                       # Number of indirect misses.
system.cpu0.branchPred.lookups                     68                       # Number of BP lookups
system.cpu0.branchPred.usedRAS                      0                       # Number of times the RAS was used to get a target.
system.cpu0.branchPredindirectMispredicted           12                       # Number of mispredicted indirect branches.
system.cpu0.committedInsts                    3390087                       # Number of instructions committed
system.cpu0.committedOps                      6211253                       # Number of ops (including micro ops) committed
system.cpu0.cpi                             19.773841                       # CPI: cycles per instruction
system.cpu0.discardedOps                      1968774                       # Number of ops (including micro ops) which were discarded before commit
system.cpu0.dtb.rdAccesses                     559122                       # TLB accesses on read requests
system.cpu0.dtb.rdMisses                         2020                       # TLB misses on read requests
system.cpu0.dtb.wrAccesses                    2934939                       # TLB accesses on write requests
system.cpu0.dtb.wrMisses                        11028                       # TLB misses on write requests
system.cpu0.fetch2.amo_instructions                 0                       # Number of memory atomic instructions successfully decoded
system.cpu0.fetch2.fp_instructions                  0                       # Number of floating point instructions successfully decoded
system.cpu0.fetch2.int_instructions                 8                       # Number of integer instructions successfully decoded
system.cpu0.fetch2.load_instructions                0                       # Number of memory load instructions successfully decoded
system.cpu0.fetch2.store_instructions               0                       # Number of memory store instructions successfully decoded
system.cpu0.fetch2.vec_instructions                 0                       # Number of SIMD instructions successfully decoded
system.cpu0.idleCycles                       56836377                       # Total number of cycles that the object has spent stopped
system.cpu0.ipc                              0.050572                       # IPC: instructions per cycle
system.cpu0.itb.rdAccesses                          0                       # TLB accesses on read requests
system.cpu0.itb.rdMisses                            0                       # TLB misses on read requests
system.cpu0.itb.wrAccesses                    1272436                       # TLB accesses on write requests
system.cpu0.itb.wrMisses                          175                       # TLB misses on write requests
system.cpu0.numCycles                        67035041                       # number of cpu cycles simulated
system.cpu0.numFetchSuspends                        0                       # Number of times Execute suspended instruction fetching
system.cpu0.numWorkItemsCompleted                   0                       # number of work items this cpu completed
system.cpu0.numWorkItemsStarted                     0                       # number of work items this cpu started
system.cpu0.op_class_0::No_OpClass               2098      0.03%      0.03% # Class of committed instruction
system.cpu0.op_class_0::IntAlu                3068972     49.41%     49.44% # Class of committed instruction
system.cpu0.op_class_0::IntMult                   641      0.01%     49.45% # Class of committed instruction
system.cpu0.op_class_0::IntDiv                   1317      0.02%     49.48% # Class of committed instruction
system.cpu0.op_class_0::FloatAdd                  189      0.00%     49.48% # Class of committed instruction
system.cpu0.op_class_0::FloatCmp                    0      0.00%     49.48% # Class of committed instruction
system.cpu0.op_class_0::FloatCvt                   96      0.00%     49.48% # Class of committed instruction
system.cpu0.op_class_0::FloatMult                   0      0.00%     49.48% # Class of committed instruction
system.cpu0.op_class_0::FloatMultAcc                0      0.00%     49.48% # Class of committed instruction
system.cpu0.op_class_0::FloatDiv                    0      0.00%     49.48% # Class of committed instruction
system.cpu0.op_class_0::FloatMisc                   0      0.00%     49.48% # Class of committed instruction
system.cpu0.op_class_0::FloatSqrt                   0      0.00%     49.48% # Class of committed instruction
system.cpu0.op_class_0::SimdAdd                   916      0.01%     49.49% # Class of committed instruction
system.cpu0.op_class_0::SimdAddAcc                  0      0.00%     49.49% # Class of committed instruction
system.cpu0.op_class_0::SimdAlu                   943      0.02%     49.51% # Class of committed instruction
system.cpu0.op_class_0::SimdCmp                     0      0.00%     49.51% # Class of committed instruction
system.cpu0.op_class_0::SimdCvt                  1230      0.02%     49.53% # Class of committed instruction
system.cpu0.op_class_0::SimdMisc                  843      0.01%     49.54% # Class of committed instruction
system.cpu0.op_class_0::SimdMult                    0      0.00%     49.54% # Class of committed instruction
system.cpu0.op_class_0::SimdMultAcc                 0      0.00%     49.54% # Class of committed instruction
system.cpu0.op_class_0::SimdShift                 388      0.01%     49.55% # Class of committed instruction
system.cpu0.op_class_0::SimdShiftAcc                0      0.00%     49.55% # Class of committed instruction
system.cpu0.op_class_0::SimdDiv                     0      0.00%     49.55% # Class of committed instruction
system.cpu0.op_class_0::SimdSqrt                    0      0.00%     49.55% # Class of committed instruction
system.cpu0.op_class_0::SimdFloatAdd                0      0.00%     49.55% # Class of committed instruction
system.cpu0.op_class_0::SimdFloatAlu                0      0.00%     49.55% # Class of committed instruction
system.cpu0.op_class_0::SimdFloatCmp                0      0.00%     49.55% # Class of committed instruction
system.cpu0.op_class_0::SimdFloatCvt                0      0.00%     49.55% # Class of committed instruction
system.cpu0.op_class_0::SimdFloatDiv                0      0.00%     49.55% # Class of committed instruction
system.cpu0.op_class_0::SimdFloatMisc               0      0.00%     49.55% # Class of committed instruction
system.cpu0.op_class_0::SimdFloatMult               0      0.00%     49.55% # Class of committed instruction
system.cpu0.op_class_0::SimdFloatMultAcc            0      0.00%     49.55% # Class of committed instruction
system.cpu0.op_class_0::SimdFloatSqrt               0      0.00%     49.55% # Class of committed instruction
system.cpu0.op_class_0::SimdReduceAdd               0      0.00%     49.55% # Class of committed instruction
system.cpu0.op_class_0::SimdReduceAlu               0      0.00%     49.55% # Class of committed instruction
system.cpu0.op_class_0::SimdReduceCmp               0      0.00%     49.55% # Class of committed instruction
system.cpu0.op_class_0::SimdFloatReduceAdd            0      0.00%     49.55% # Class of committed instruction
system.cpu0.op_class_0::SimdFloatReduceCmp            0      0.00%     49.55% # Class of committed instruction
system.cpu0.op_class_0::SimdAes                     0      0.00%     49.55% # Class of committed instruction
system.cpu0.op_class_0::SimdAesMix                  0      0.00%     49.55% # Class of committed instruction
system.cpu0.op_class_0::SimdSha1Hash                0      0.00%     49.55% # Class of committed instruction
system.cpu0.op_class_0::SimdSha1Hash2               0      0.00%     49.55% # Class of committed instruction
system.cpu0.op_class_0::SimdSha256Hash              0      0.00%     49.55% # Class of committed instruction
system.cpu0.op_class_0::SimdSha256Hash2             0      0.00%     49.55% # Class of committed instruction
system.cpu0.op_class_0::SimdShaSigma2               0      0.00%     49.55% # Class of committed instruction
system.cpu0.op_class_0::SimdShaSigma3               0      0.00%     49.55% # Class of committed instruction
system.cpu0.op_class_0::SimdPredAlu                 0      0.00%     49.55% # Class of committed instruction
system.cpu0.op_class_0::MemRead                199681      3.21%     52.76% # Class of committed instruction
system.cpu0.op_class_0::MemWrite               133412      2.15%     54.91% # Class of committed instruction
system.cpu0.op_class_0::FloatMemRead             1610      0.03%     54.94% # Class of committed instruction
system.cpu0.op_class_0::FloatMemWrite         2798917     45.06%    100.00% # Class of committed instruction
system.cpu0.op_class_0::IprAccess                   0      0.00%    100.00% # Class of committed instruction
system.cpu0.op_class_0::InstPrefetch                0      0.00%    100.00% # Class of committed instruction
system.cpu0.op_class_0::total                 6211253                       # Class of committed instruction
system.cpu0.tickCycles                       10198664                       # Number of cycles that the object actually ticked
system.cpu0.workload.numSyscalls                   30                       # Number of system calls
system.cpu1.branchPred.BTBCorrect                   0                       # Number of correct BTB predictions (this stat may not work properly.
system.cpu1.branchPred.BTBHitPct                  nan                       # BTB Hit Percentage
system.cpu1.branchPred.BTBHits                      0                       # Number of BTB hits
system.cpu1.branchPred.BTBLookups                   0                       # Number of BTB lookups
system.cpu1.branchPred.RASInCorrect                 0                       # Number of incorrect RAS predictions.
system.cpu1.branchPred.condIncorrect               39                       # Number of conditional branches incorrect
system.cpu1.branchPred.condPredicted               80                       # Number of conditional branches predicted
system.cpu1.branchPred.indirectHits                 0                       # Number of indirect target hits.
system.cpu1.branchPred.indirectLookups             24                       # Number of indirect predictor lookups.
system.cpu1.branchPred.indirectMisses              24                       # Number of indirect misses.
system.cpu1.branchPred.lookups                     80                       # Number of BP lookups
system.cpu1.branchPred.usedRAS                      0                       # Number of times the RAS was used to get a target.
system.cpu1.branchPredindirectMispredicted           15                       # Number of mispredicted indirect branches.
system.cpu1.committedInsts                   10000000                       # Number of instructions committed
system.cpu1.committedOps                     18916380                       # Number of ops (including micro ops) committed
system.cpu1.cpi                              6.703505                       # CPI: cycles per instruction
system.cpu1.discardedOps                      3503877                       # Number of ops (including micro ops) which were discarded before commit
system.cpu1.dtb.rdAccesses                    2501867                       # TLB accesses on read requests
system.cpu1.dtb.rdMisses                        32866                       # TLB misses on read requests
system.cpu1.dtb.wrAccesses                    1828767                       # TLB accesses on write requests
system.cpu1.dtb.wrMisses                         1219                       # TLB misses on write requests
system.cpu1.fetch2.amo_instructions                 0                       # Number of memory atomic instructions successfully decoded
system.cpu1.fetch2.fp_instructions                  0                       # Number of floating point instructions successfully decoded
system.cpu1.fetch2.int_instructions                 8                       # Number of integer instructions successfully decoded
system.cpu1.fetch2.load_instructions                0                       # Number of memory load instructions successfully decoded
system.cpu1.fetch2.store_instructions               0                       # Number of memory store instructions successfully decoded
system.cpu1.fetch2.vec_instructions                 0                       # Number of SIMD instructions successfully decoded
system.cpu1.idleCycles                       34527895                       # Total number of cycles that the object has spent stopped
system.cpu1.ipc                              0.149176                       # IPC: instructions per cycle
system.cpu1.itb.rdAccesses                          0                       # TLB accesses on read requests
system.cpu1.itb.rdMisses                            0                       # TLB misses on read requests
system.cpu1.itb.wrAccesses                    3366697                       # TLB accesses on write requests
system.cpu1.itb.wrMisses                          193                       # TLB misses on write requests
system.cpu1.numCycles                        67035047                       # number of cpu cycles simulated
system.cpu1.numFetchSuspends                        0                       # Number of times Execute suspended instruction fetching
system.cpu1.numWorkItemsCompleted                   0                       # number of work items this cpu completed
system.cpu1.numWorkItemsStarted                     0                       # number of work items this cpu started
system.cpu1.op_class_0::No_OpClass              38775      0.20%      0.20% # Class of committed instruction
system.cpu1.op_class_0::IntAlu               14860976     78.56%     78.77% # Class of committed instruction
system.cpu1.op_class_0::IntMult                 41062      0.22%     78.98% # Class of committed instruction
system.cpu1.op_class_0::IntDiv                   1365      0.01%     78.99% # Class of committed instruction
system.cpu1.op_class_0::FloatAdd                24884      0.13%     79.12% # Class of committed instruction
system.cpu1.op_class_0::FloatCmp                    0      0.00%     79.12% # Class of committed instruction
system.cpu1.op_class_0::FloatCvt                  160      0.00%     79.12% # Class of committed instruction
system.cpu1.op_class_0::FloatMult                   0      0.00%     79.12% # Class of committed instruction
system.cpu1.op_class_0::FloatMultAcc                0      0.00%     79.12% # Class of committed instruction
system.cpu1.op_class_0::FloatDiv                    0      0.00%     79.12% # Class of committed instruction
system.cpu1.op_class_0::FloatMisc                   0      0.00%     79.12% # Class of committed instruction
system.cpu1.op_class_0::FloatSqrt                   0      0.00%     79.12% # Class of committed instruction
system.cpu1.op_class_0::SimdAdd                   946      0.01%     79.13% # Class of committed instruction
system.cpu1.op_class_0::SimdAddAcc                  0      0.00%     79.13% # Class of committed instruction
system.cpu1.op_class_0::SimdAlu                  1027      0.01%     79.13% # Class of committed instruction
system.cpu1.op_class_0::SimdCmp                    12      0.00%     79.13% # Class of committed instruction
system.cpu1.op_class_0::SimdCvt                 27378      0.14%     79.28% # Class of committed instruction
system.cpu1.op_class_0::SimdMisc               112708      0.60%     79.87% # Class of committed instruction
system.cpu1.op_class_0::SimdMult                    0      0.00%     79.87% # Class of committed instruction
system.cpu1.op_class_0::SimdMultAcc                 0      0.00%     79.87% # Class of committed instruction
system.cpu1.op_class_0::SimdShift                 446      0.00%     79.88% # Class of committed instruction
system.cpu1.op_class_0::SimdShiftAcc                0      0.00%     79.88% # Class of committed instruction
system.cpu1.op_class_0::SimdDiv                     0      0.00%     79.88% # Class of committed instruction
system.cpu1.op_class_0::SimdSqrt                    0      0.00%     79.88% # Class of committed instruction
system.cpu1.op_class_0::SimdFloatAdd                0      0.00%     79.88% # Class of committed instruction
system.cpu1.op_class_0::SimdFloatAlu                0      0.00%     79.88% # Class of committed instruction
system.cpu1.op_class_0::SimdFloatCmp                0      0.00%     79.88% # Class of committed instruction
system.cpu1.op_class_0::SimdFloatCvt                0      0.00%     79.88% # Class of committed instruction
system.cpu1.op_class_0::SimdFloatDiv                0      0.00%     79.88% # Class of committed instruction
system.cpu1.op_class_0::SimdFloatMisc               0      0.00%     79.88% # Class of committed instruction
system.cpu1.op_class_0::SimdFloatMult               0      0.00%     79.88% # Class of committed instruction
system.cpu1.op_class_0::SimdFloatMultAcc            0      0.00%     79.88% # Class of committed instruction
system.cpu1.op_class_0::SimdFloatSqrt               0      0.00%     79.88% # Class of committed instruction
system.cpu1.op_class_0::SimdReduceAdd               0      0.00%     79.88% # Class of committed instruction
system.cpu1.op_class_0::SimdReduceAlu               0      0.00%     79.88% # Class of committed instruction
system.cpu1.op_class_0::SimdReduceCmp               0      0.00%     79.88% # Class of committed instruction
system.cpu1.op_class_0::SimdFloatReduceAdd            0      0.00%     79.88% # Class of committed instruction
system.cpu1.op_class_0::SimdFloatReduceCmp            0      0.00%     79.88% # Class of committed instruction
system.cpu1.op_class_0::SimdAes                     0      0.00%     79.88% # Class of committed instruction
system.cpu1.op_class_0::SimdAesMix                  0      0.00%     79.88% # Class of committed instruction
system.cpu1.op_class_0::SimdSha1Hash                0      0.00%     79.88% # Class of committed instruction
system.cpu1.op_class_0::SimdSha1Hash2               0      0.00%     79.88% # Class of committed instruction
system.cpu1.op_class_0::SimdSha256Hash              0      0.00%     79.88% # Class of committed instruction
system.cpu1.op_class_0::SimdSha256Hash2             0      0.00%     79.88% # Class of committed instruction
system.cpu1.op_class_0::SimdShaSigma2               0      0.00%     79.88% # Class of committed instruction
system.cpu1.op_class_0::SimdShaSigma3               0      0.00%     79.88% # Class of committed instruction
system.cpu1.op_class_0::SimdPredAlu                 0      0.00%     79.88% # Class of committed instruction
system.cpu1.op_class_0::MemRead               2046688     10.82%     90.70% # Class of committed instruction
system.cpu1.op_class_0::MemWrite              1656607      8.76%     99.45% # Class of committed instruction
system.cpu1.op_class_0::FloatMemRead            64978      0.34%     99.80% # Class of committed instruction
system.cpu1.op_class_0::FloatMemWrite           38368      0.20%    100.00% # Class of committed instruction
system.cpu1.op_class_0::IprAccess                   0      0.00%    100.00% # Class of committed instruction
system.cpu1.op_class_0::InstPrefetch                0      0.00%    100.00% # Class of committed instruction
system.cpu1.op_class_0::total                18916380                       # Class of committed instruction
system.cpu1.tickCycles                       32507152                       # Number of cycles that the object actually ticked
system.cpu1.workload.numSyscalls                   39                       # Number of system calls
system.membus.snoop_filter.hit_multi_requests            0                       # Number of requests hitting in the snoop filter with multiple (>1) holders of the requested data.
system.membus.snoop_filter.hit_multi_snoops            0                       # Number of snoops hitting in the snoop filter with multiple (>1) holders of the requested data.
system.membus.snoop_filter.hit_single_requests       401307                       # Number of requests hitting in the snoop filter with a single holder of the requested data.
system.membus.snoop_filter.hit_single_snoops            0                       # Number of snoops hitting in the snoop filter with a single holder of the requested data.
system.membus.snoop_filter.tot_requests        803655                       # Total number of requests made to the snoop filter.
system.membus.snoop_filter.tot_snoops               0                       # Total number of snoops made to the snoop filter.
system.tol2bus.snoop_filter.hit_multi_requests            0                       # Number of requests hitting in the snoop filter with multiple (>1) holders of the requested data.
system.tol2bus.snoop_filter.hit_multi_snoops            0                       # Number of snoops hitting in the snoop filter with multiple (>1) holders of the requested data.
system.tol2bus.snoop_filter.hit_single_requests      2655524                       # Number of requests hitting in the snoop filter with a single holder of the requested data.
system.tol2bus.snoop_filter.hit_single_snoops          132                       # Number of snoops hitting in the snoop filter with a single holder of the requested data.
system.tol2bus.snoop_filter.tot_requests      5311113                       # Total number of requests made to the snoop filter.
system.tol2bus.snoop_filter.tot_snoops            132                       # Total number of snoops made to the snoop filter.
system.membus.trans_dist::ReadResp              16282                       # Transaction distribution
system.membus.trans_dist::WritebackDirty       390050                       # Transaction distribution
system.membus.trans_dist::CleanEvict            11257                       # Transaction distribution
system.membus.trans_dist::ReadExReq            386066                       # Transaction distribution
system.membus.trans_dist::ReadExResp           386066                       # Transaction distribution
system.membus.trans_dist::ReadSharedReq         16282                       # Transaction distribution
system.membus.pkt_count_system.l2.mem_side::system.mem_ctrls.port      1206003                       # Packet count per connected master and slave (bytes)
system.membus.pkt_count_system.l2.mem_side::total      1206003                       # Packet count per connected master and slave (bytes)
system.membus.pkt_count::total                1206003                       # Packet count per connected master and slave (bytes)
system.membus.pkt_size_system.l2.mem_side::system.mem_ctrls.port     50713472                       # Cumulative packet size per connected master and slave (bytes)
system.membus.pkt_size_system.l2.mem_side::total     50713472                       # Cumulative packet size per connected master and slave (bytes)
system.membus.pkt_size::total                50713472                       # Cumulative packet size per connected master and slave (bytes)
system.membus.snoops                                0                       # Total snoops (count)
system.membus.snoopTraffic                          0                       # Total snoop traffic (bytes)
system.membus.snoop_fanout::samples            402348                       # Request fanout histogram
system.membus.snoop_fanout::mean                    0                       # Request fanout histogram
system.membus.snoop_fanout::stdev                   0                       # Request fanout histogram
system.membus.snoop_fanout::underflows              0      0.00%      0.00% # Request fanout histogram
system.membus.snoop_fanout::0                  402348    100.00%    100.00% # Request fanout histogram
system.membus.snoop_fanout::1                       0      0.00%    100.00% # Request fanout histogram
system.membus.snoop_fanout::overflows               0      0.00%    100.00% # Request fanout histogram
system.membus.snoop_fanout::min_value               0                       # Request fanout histogram
system.membus.snoop_fanout::max_value               0                       # Request fanout histogram
system.membus.snoop_fanout::total              402348                       # Request fanout histogram
system.membus.reqLayer4.occupancy          2535121500                       # Layer occupancy (ticks)
system.membus.reqLayer4.utilization               7.6                       # Layer utilization (%)
system.membus.respLayer1.occupancy         2124892500                       # Layer occupancy (ticks)
system.membus.respLayer1.utilization              6.3                       # Layer utilization (%)
system.membus.power_state.pwrStateResidencyTicks::UNDEFINED  33517523500                       # Cumulative time (in ticks) in various power states
system.voltage_domain.voltage                       1                       # Voltage in Volts
system.clk_domain.clock                          1000                       # Clock period in ticks
system.cpu0.icache.demand_hits::.cpu0.inst      1263507                       # number of demand (read+write) hits
system.cpu0.icache.demand_hits::total         1263507                       # number of demand (read+write) hits
system.cpu0.icache.overall_hits::.cpu0.inst      1263507                       # number of overall hits
system.cpu0.icache.overall_hits::total        1263507                       # number of overall hits
system.cpu0.icache.demand_misses::.cpu0.inst         8886                       # number of demand (read+write) misses
system.cpu0.icache.demand_misses::total          8886                       # number of demand (read+write) misses
system.cpu0.icache.overall_misses::.cpu0.inst         8886                       # number of overall misses
system.cpu0.icache.overall_misses::total         8886                       # number of overall misses
system.cpu0.icache.demand_miss_latency::.cpu0.inst    241533500                       # number of demand (read+write) miss cycles
system.cpu0.icache.demand_miss_latency::total    241533500                       # number of demand (read+write) miss cycles
system.cpu0.icache.overall_miss_latency::.cpu0.inst    241533500                       # number of overall miss cycles
system.cpu0.icache.overall_miss_latency::total    241533500                       # number of overall miss cycles
system.cpu0.icache.demand_accesses::.cpu0.inst      1272393                       # number of demand (read+write) accesses
system.cpu0.icache.demand_accesses::total      1272393                       # number of demand (read+write) accesses
system.cpu0.icache.overall_accesses::.cpu0.inst      1272393                       # number of overall (read+write) accesses
system.cpu0.icache.overall_accesses::total      1272393                       # number of overall (read+write) accesses
system.cpu0.icache.demand_miss_rate::.cpu0.inst     0.006984                       # miss rate for demand accesses
system.cpu0.icache.demand_miss_rate::total     0.006984                       # miss rate for demand accesses
system.cpu0.icache.overall_miss_rate::.cpu0.inst     0.006984                       # miss rate for overall accesses
system.cpu0.icache.overall_miss_rate::total     0.006984                       # miss rate for overall accesses
system.cpu0.icache.demand_avg_miss_latency::.cpu0.inst 27181.352690                       # average overall miss latency
system.cpu0.icache.demand_avg_miss_latency::total 27181.352690                       # average overall miss latency
system.cpu0.icache.overall_avg_miss_latency::.cpu0.inst 27181.352690                       # average overall miss latency
system.cpu0.icache.overall_avg_miss_latency::total 27181.352690                       # average overall miss latency
system.cpu0.icache.blocked_cycles::no_mshrs            0                       # number of cycles access was blocked
system.cpu0.icache.blocked_cycles::no_targets            0                       # number of cycles access was blocked
system.cpu0.icache.blocked::no_mshrs                0                       # number of cycles access was blocked
system.cpu0.icache.blocked::no_targets              0                       # number of cycles access was blocked
system.cpu0.icache.avg_blocked_cycles::no_mshrs          nan                       # average number of cycles each access was blocked
system.cpu0.icache.avg_blocked_cycles::no_targets          nan                       # average number of cycles each access was blocked
system.cpu0.icache.writebacks::.writebacks         8870                       # number of writebacks
system.cpu0.icache.writebacks::total             8870                       # number of writebacks
system.cpu0.icache.demand_mshr_misses::.cpu0.inst         8886                       # number of demand (read+write) MSHR misses
system.cpu0.icache.demand_mshr_misses::total         8886                       # number of demand (read+write) MSHR misses
system.cpu0.icache.overall_mshr_misses::.cpu0.inst         8886                       # number of overall MSHR misses
system.cpu0.icache.overall_mshr_misses::total         8886                       # number of overall MSHR misses
system.cpu0.icache.demand_mshr_miss_latency::.cpu0.inst    232647500                       # number of demand (read+write) MSHR miss cycles
system.cpu0.icache.demand_mshr_miss_latency::total    232647500                       # number of demand (read+write) MSHR miss cycles
system.cpu0.icache.overall_mshr_miss_latency::.cpu0.inst    232647500                       # number of overall MSHR miss cycles
system.cpu0.icache.overall_mshr_miss_latency::total    232647500                       # number of overall MSHR miss cycles
system.cpu0.icache.demand_mshr_miss_rate::.cpu0.inst     0.006984                       # mshr miss rate for demand accesses
system.cpu0.icache.demand_mshr_miss_rate::total     0.006984                       # mshr miss rate for demand accesses
system.cpu0.icache.overall_mshr_miss_rate::.cpu0.inst     0.006984                       # mshr miss rate for overall accesses
system.cpu0.icache.overall_mshr_miss_rate::total     0.006984                       # mshr miss rate for overall accesses
system.cpu0.icache.demand_avg_mshr_miss_latency::.cpu0.inst 26181.352690                       # average overall mshr miss latency
system.cpu0.icache.demand_avg_mshr_miss_latency::total 26181.352690                       # average overall mshr miss latency
system.cpu0.icache.overall_avg_mshr_miss_latency::.cpu0.inst 26181.352690                       # average overall mshr miss latency
system.cpu0.icache.overall_avg_mshr_miss_latency::total 26181.352690                       # average overall mshr miss latency
system.cpu0.icache.replacements                  8870                       # number of replacements
system.cpu0.icache.ReadReq_hits::.cpu0.inst      1263507                       # number of ReadReq hits
system.cpu0.icache.ReadReq_hits::total        1263507                       # number of ReadReq hits
system.cpu0.icache.ReadReq_misses::.cpu0.inst         8886                       # number of ReadReq misses
system.cpu0.icache.ReadReq_misses::total         8886                       # number of ReadReq misses
system.cpu0.icache.ReadReq_miss_latency::.cpu0.inst    241533500                       # number of ReadReq miss cycles
system.cpu0.icache.ReadReq_miss_latency::total    241533500                       # number of ReadReq miss cycles
system.cpu0.icache.ReadReq_accesses::.cpu0.inst      1272393                       # number of ReadReq accesses(hits+misses)
system.cpu0.icache.ReadReq_accesses::total      1272393                       # number of ReadReq accesses(hits+misses)
system.cpu0.icache.ReadReq_miss_rate::.cpu0.inst     0.006984                       # miss rate for ReadReq accesses
system.cpu0.icache.ReadReq_miss_rate::total     0.006984                       # miss rate for ReadReq accesses
system.cpu0.icache.ReadReq_avg_miss_latency::.cpu0.inst 27181.352690                       # average ReadReq miss latency
system.cpu0.icache.ReadReq_avg_miss_latency::total 27181.352690                       # average ReadReq miss latency
system.cpu0.icache.ReadReq_mshr_misses::.cpu0.inst         8886                       # number of ReadReq MSHR misses
system.cpu0.icache.ReadReq_mshr_misses::total         8886                       # number of ReadReq MSHR misses
system.cpu0.icache.ReadReq_mshr_miss_latency::.cpu0.inst    232647500                       # number of ReadReq MSHR miss cycles
system.cpu0.icache.ReadReq_mshr_miss_latency::total    232647500                       # number of ReadReq MSHR miss cycles
system.cpu0.icache.ReadReq_mshr_miss_rate::.cpu0.inst     0.006984                       # mshr miss rate for ReadReq accesses
system.cpu0.icache.ReadReq_mshr_miss_rate::total     0.006984                       # mshr miss rate for ReadReq accesses
system.cpu0.icache.ReadReq_avg_mshr_miss_latency::.cpu0.inst 26181.352690                       # average ReadReq mshr miss latency
system.cpu0.icache.ReadReq_avg_mshr_miss_latency::total 26181.352690                       # average ReadReq mshr miss latency
system.cpu0.icache.power_state.pwrStateResidencyTicks::UNDEFINED  33517523500                       # Cumulative time (in ticks) in various power states
system.cpu0.icache.tags.tagsinuse           15.999592                       # Cycle average of tags in use
system.cpu0.icache.tags.total_refs            1272393                       # Total number of references to valid blocks.
system.cpu0.icache.tags.sampled_refs             8886                       # Sample count of references to valid blocks.
system.cpu0.icache.tags.avg_refs           143.190749                       # Average number of references to valid blocks.
system.cpu0.icache.tags.warmup_cycle            87500                       # Cycle when the warmup percentage was hit.
system.cpu0.icache.tags.occ_blocks::.cpu0.inst    15.999592                       # Average occupied blocks per requestor
system.cpu0.icache.tags.occ_percent::.cpu0.inst     0.999974                       # Average percentage of cache occupancy
system.cpu0.icache.tags.occ_percent::total     0.999974                       # Average percentage of cache occupancy
system.cpu0.icache.tags.occ_task_id_blocks::1024           16                       # Occupied blocks per task id
system.cpu0.icache.tags.age_task_id_blocks_1024::4           16                       # Occupied blocks per task id
system.cpu0.icache.tags.occ_task_id_percent::1024            1                       # Percentage of cache occupancy per task id
system.cpu0.icache.tags.tag_accesses         10188030                       # Number of tag accesses
system.cpu0.icache.tags.data_accesses        10188030                       # Number of data accesses
system.cpu0.icache.tags.power_state.pwrStateResidencyTicks::UNDEFINED  33517523500                       # Cumulative time (in ticks) in various power states
system.cpu0.dtb.walker.power_state.pwrStateResidencyTicks::UNDEFINED  33517523500                       # Cumulative time (in ticks) in various power states
system.cpu0.interrupts.clk_domain.clock          8000                       # Clock period in ticks
system.cpu0.itb_walker_cache.blocked_cycles::no_mshrs            0                       # number of cycles access was blocked
system.cpu0.itb_walker_cache.blocked_cycles::no_targets            0                       # number of cycles access was blocked
system.cpu0.itb_walker_cache.blocked::no_mshrs            0                       # number of cycles access was blocked
system.cpu0.itb_walker_cache.blocked::no_targets            0                       # number of cycles access was blocked
system.cpu0.itb_walker_cache.avg_blocked_cycles::no_mshrs          nan                       # average number of cycles each access was blocked
system.cpu0.itb_walker_cache.avg_blocked_cycles::no_targets          nan                       # average number of cycles each access was blocked
system.cpu0.itb_walker_cache.replacements            0                       # number of replacements
system.cpu0.itb_walker_cache.power_state.pwrStateResidencyTicks::UNDEFINED  33517523500                       # Cumulative time (in ticks) in various power states
system.cpu0.itb_walker_cache.tags.tagsinuse            0                       # Cycle average of tags in use
system.cpu0.itb_walker_cache.tags.total_refs            0                       # Total number of references to valid blocks.
system.cpu0.itb_walker_cache.tags.sampled_refs            0                       # Sample count of references to valid blocks.
system.cpu0.itb_walker_cache.tags.avg_refs          nan                       # Average number of references to valid blocks.
system.cpu0.itb_walker_cache.tags.warmup_cycle            0                       # Cycle when the warmup percentage was hit.
system.cpu0.itb_walker_cache.tags.tag_accesses            0                       # Number of tag accesses
system.cpu0.itb_walker_cache.tags.data_accesses            0                       # Number of data accesses
system.cpu0.itb_walker_cache.tags.power_state.pwrStateResidencyTicks::UNDEFINED  33517523500                       # Cumulative time (in ticks) in various power states
system.cpu0.dtb_walker_cache.blocked_cycles::no_mshrs            0                       # number of cycles access was blocked
system.cpu0.dtb_walker_cache.blocked_cycles::no_targets            0                       # number of cycles access was blocked
system.cpu0.dtb_walker_cache.blocked::no_mshrs            0                       # number of cycles access was blocked
system.cpu0.dtb_walker_cache.blocked::no_targets            0                       # number of cycles access was blocked
system.cpu0.dtb_walker_cache.avg_blocked_cycles::no_mshrs          nan                       # average number of cycles each access was blocked
system.cpu0.dtb_walker_cache.avg_blocked_cycles::no_targets          nan                       # average number of cycles each access was blocked
system.cpu0.dtb_walker_cache.replacements            0                       # number of replacements
system.cpu0.dtb_walker_cache.power_state.pwrStateResidencyTicks::UNDEFINED  33517523500                       # Cumulative time (in ticks) in various power states
system.cpu0.dtb_walker_cache.tags.tagsinuse            0                       # Cycle average of tags in use
system.cpu0.dtb_walker_cache.tags.total_refs            0                       # Total number of references to valid blocks.
system.cpu0.dtb_walker_cache.tags.sampled_refs            0                       # Sample count of references to valid blocks.
system.cpu0.dtb_walker_cache.tags.avg_refs          nan                       # Average number of references to valid blocks.
system.cpu0.dtb_walker_cache.tags.warmup_cycle            0                       # Cycle when the warmup percentage was hit.
system.cpu0.dtb_walker_cache.tags.tag_accesses            0                       # Number of tag accesses
system.cpu0.dtb_walker_cache.tags.data_accesses            0                       # Number of data accesses
system.cpu0.dtb_walker_cache.tags.power_state.pwrStateResidencyTicks::UNDEFINED  33517523500                       # Cumulative time (in ticks) in various power states
system.cpu0.dcache.demand_hits::.cpu0.data      2754787                       # number of demand (read+write) hits
system.cpu0.dcache.demand_hits::total         2754787                       # number of demand (read+write) hits
system.cpu0.dcache.overall_hits::.cpu0.data      2754787                       # number of overall hits
system.cpu0.dcache.overall_hits::total        2754787                       # number of overall hits
system.cpu0.dcache.demand_misses::.cpu0.data       728659                       # number of demand (read+write) misses
system.cpu0.dcache.demand_misses::total        728659                       # number of demand (read+write) misses
system.cpu0.dcache.overall_misses::.cpu0.data       728659                       # number of overall misses
system.cpu0.dcache.overall_misses::total       728659                       # number of overall misses
system.cpu0.dcache.demand_miss_latency::.cpu0.data  59072290500                       # number of demand (read+write) miss cycles
system.cpu0.dcache.demand_miss_latency::total  59072290500                       # number of demand (read+write) miss cycles
system.cpu0.dcache.overall_miss_latency::.cpu0.data  59072290500                       # number of overall miss cycles
system.cpu0.dcache.overall_miss_latency::total  59072290500                       # number of overall miss cycles
system.cpu0.dcache.demand_accesses::.cpu0.data      3483446                       # number of demand (read+write) accesses
system.cpu0.dcache.demand_accesses::total      3483446                       # number of demand (read+write) accesses
system.cpu0.dcache.overall_accesses::.cpu0.data      3483446                       # number of overall (read+write) accesses
system.cpu0.dcache.overall_accesses::total      3483446                       # number of overall (read+write) accesses
system.cpu0.dcache.demand_miss_rate::.cpu0.data     0.209178                       # miss rate for demand accesses
system.cpu0.dcache.demand_miss_rate::total     0.209178                       # miss rate for demand accesses
system.cpu0.dcache.overall_miss_rate::.cpu0.data     0.209178                       # miss rate for overall accesses
system.cpu0.dcache.overall_miss_rate::total     0.209178                       # miss rate for overall accesses
system.cpu0.dcache.demand_avg_miss_latency::.cpu0.data 81069.870131                       # average overall miss latency
system.cpu0.dcache.demand_avg_miss_latency::total 81069.870131                       # average overall miss latency
system.cpu0.dcache.overall_avg_miss_latency::.cpu0.data 81069.870131                       # average overall miss latency
system.cpu0.dcache.overall_avg_miss_latency::total 81069.870131                       # average overall miss latency
system.cpu0.dcache.blocked_cycles::no_mshrs            0                       # number of cycles access was blocked
system.cpu0.dcache.blocked_cycles::no_targets            0                       # number of cycles access was blocked
system.cpu0.dcache.blocked::no_mshrs                0                       # number of cycles access was blocked
system.cpu0.dcache.blocked::no_targets              0                       # number of cycles access was blocked
system.cpu0.dcache.avg_blocked_cycles::no_mshrs          nan                       # average number of cycles each access was blocked
system.cpu0.dcache.avg_blocked_cycles::no_targets          nan                       # average number of cycles each access was blocked
system.cpu0.dcache.writebacks::.writebacks       359202                       # number of writebacks
system.cpu0.dcache.writebacks::total           359202                       # number of writebacks
system.cpu0.dcache.demand_mshr_hits::.cpu0.data       355101                       # number of demand (read+write) MSHR hits
system.cpu0.dcache.demand_mshr_hits::total       355101                       # number of demand (read+write) MSHR hits
system.cpu0.dcache.overall_mshr_hits::.cpu0.data       355101                       # number of overall MSHR hits
system.cpu0.dcache.overall_mshr_hits::total       355101                       # number of overall MSHR hits
system.cpu0.dcache.demand_mshr_misses::.cpu0.data       373558                       # number of demand (read+write) MSHR misses
system.cpu0.dcache.demand_mshr_misses::total       373558                       # number of demand (read+write) MSHR misses
system.cpu0.dcache.overall_mshr_misses::.cpu0.data       373558                       # number of overall MSHR misses
system.cpu0.dcache.overall_mshr_misses::total       373558                       # number of overall MSHR misses
system.cpu0.dcache.demand_mshr_miss_latency::.cpu0.data  29409904000                       # number of demand (read+write) MSHR miss cycles
system.cpu0.dcache.demand_mshr_miss_latency::total  29409904000                       # number of demand (read+write) MSHR miss cycles
system.cpu0.dcache.overall_mshr_miss_latency::.cpu0.data  29409904000                       # number of overall MSHR miss cycles
system.cpu0.dcache.overall_mshr_miss_latency::total  29409904000                       # number of overall MSHR miss cycles
system.cpu0.dcache.demand_mshr_miss_rate::.cpu0.data     0.107238                       # mshr miss rate for demand accesses
system.cpu0.dcache.demand_mshr_miss_rate::total     0.107238                       # mshr miss rate for demand accesses
system.cpu0.dcache.overall_mshr_miss_rate::.cpu0.data     0.107238                       # mshr miss rate for overall accesses
system.cpu0.dcache.overall_mshr_miss_rate::total     0.107238                       # mshr miss rate for overall accesses
system.cpu0.dcache.demand_avg_mshr_miss_latency::.cpu0.data 78729.150493                       # average overall mshr miss latency
system.cpu0.dcache.demand_avg_mshr_miss_latency::total 78729.150493                       # average overall mshr miss latency
system.cpu0.dcache.overall_avg_mshr_miss_latency::.cpu0.data 78729.150493                       # average overall mshr miss latency
system.cpu0.dcache.overall_avg_mshr_miss_latency::total 78729.150493                       # average overall mshr miss latency
system.cpu0.dcache.replacements                373541                       # number of replacements
system.cpu0.dcache.ReadReq_hits::.cpu0.data       540188                       # number of ReadReq hits
system.cpu0.dcache.ReadReq_hits::total         540188                       # number of ReadReq hits
system.cpu0.dcache.ReadReq_misses::.cpu0.data        16400                       # number of ReadReq misses
system.cpu0.dcache.ReadReq_misses::total        16400                       # number of ReadReq misses
system.cpu0.dcache.ReadReq_miss_latency::.cpu0.data    425304000                       # number of ReadReq miss cycles
system.cpu0.dcache.ReadReq_miss_latency::total    425304000                       # number of ReadReq miss cycles
system.cpu0.dcache.ReadReq_accesses::.cpu0.data       556588                       # number of ReadReq accesses(hits+misses)
system.cpu0.dcache.ReadReq_accesses::total       556588                       # number of ReadReq accesses(hits+misses)
system.cpu0.dcache.ReadReq_miss_rate::.cpu0.data     0.029465                       # miss rate for ReadReq accesses
system.cpu0.dcache.ReadReq_miss_rate::total     0.029465                       # miss rate for ReadReq accesses
system.cpu0.dcache.ReadReq_avg_miss_latency::.cpu0.data 25933.170732                       # average ReadReq miss latency
system.cpu0.dcache.ReadReq_avg_miss_latency::total 25933.170732                       # average ReadReq miss latency
system.cpu0.dcache.ReadReq_mshr_hits::.cpu0.data          303                       # number of ReadReq MSHR hits
system.cpu0.dcache.ReadReq_mshr_hits::total          303                       # number of ReadReq MSHR hits
system.cpu0.dcache.ReadReq_mshr_misses::.cpu0.data        16097                       # number of ReadReq MSHR misses
system.cpu0.dcache.ReadReq_mshr_misses::total        16097                       # number of ReadReq MSHR misses
system.cpu0.dcache.ReadReq_mshr_miss_latency::.cpu0.data    395858500                       # number of ReadReq MSHR miss cycles
system.cpu0.dcache.ReadReq_mshr_miss_latency::total    395858500                       # number of ReadReq MSHR miss cycles
system.cpu0.dcache.ReadReq_mshr_miss_rate::.cpu0.data     0.028921                       # mshr miss rate for ReadReq accesses
system.cpu0.dcache.ReadReq_mshr_miss_rate::total     0.028921                       # mshr miss rate for ReadReq accesses
system.cpu0.dcache.ReadReq_avg_mshr_miss_latency::.cpu0.data 24592.066845                       # average ReadReq mshr miss latency
system.cpu0.dcache.ReadReq_avg_mshr_miss_latency::total 24592.066845                       # average ReadReq mshr miss latency
system.cpu0.dcache.WriteReq_hits::.cpu0.data      2214599                       # number of WriteReq hits
system.cpu0.dcache.WriteReq_hits::total       2214599                       # number of WriteReq hits
system.cpu0.dcache.WriteReq_misses::.cpu0.data       712259                       # number of WriteReq misses
system.cpu0.dcache.WriteReq_misses::total       712259                       # number of WriteReq misses
system.cpu0.dcache.WriteReq_miss_latency::.cpu0.data  58646986500                       # number of WriteReq miss cycles
system.cpu0.dcache.WriteReq_miss_latency::total  58646986500                       # number of WriteReq miss cycles
system.cpu0.dcache.WriteReq_accesses::.cpu0.data      2926858                       # number of WriteReq accesses(hits+misses)
system.cpu0.dcache.WriteReq_accesses::total      2926858                       # number of WriteReq accesses(hits+misses)
system.cpu0.dcache.WriteReq_miss_rate::.cpu0.data     0.243353                       # miss rate for WriteReq accesses
system.cpu0.dcache.WriteReq_miss_rate::total     0.243353                       # miss rate for WriteReq accesses
system.cpu0.dcache.WriteReq_avg_miss_latency::.cpu0.data 82339.410945                       # average WriteReq miss latency
system.cpu0.dcache.WriteReq_avg_miss_latency::total 82339.410945                       # average WriteReq miss latency
system.cpu0.dcache.WriteReq_mshr_hits::.cpu0.data       354798                       # number of WriteReq MSHR hits
system.cpu0.dcache.WriteReq_mshr_hits::total       354798                       # number of WriteReq MSHR hits
system.cpu0.dcache.WriteReq_mshr_misses::.cpu0.data       357461                       # number of WriteReq MSHR misses
system.cpu0.dcache.WriteReq_mshr_misses::total       357461                       # number of WriteReq MSHR misses
system.cpu0.dcache.WriteReq_mshr_miss_latency::.cpu0.data  29014045500                       # number of WriteReq MSHR miss cycles
system.cpu0.dcache.WriteReq_mshr_miss_latency::total  29014045500                       # number of WriteReq MSHR miss cycles
system.cpu0.dcache.WriteReq_mshr_miss_rate::.cpu0.data     0.122131                       # mshr miss rate for WriteReq accesses
system.cpu0.dcache.WriteReq_mshr_miss_rate::total     0.122131                       # mshr miss rate for WriteReq accesses
system.cpu0.dcache.WriteReq_avg_mshr_miss_latency::.cpu0.data 81167.023815                       # average WriteReq mshr miss latency
system.cpu0.dcache.WriteReq_avg_mshr_miss_latency::total 81167.023815                       # average WriteReq mshr miss latency
system.cpu0.dcache.power_state.pwrStateResidencyTicks::UNDEFINED  33517523500                       # Cumulative time (in ticks) in various power states
system.cpu0.dcache.tags.tagsinuse           15.999618                       # Cycle average of tags in use
system.cpu0.dcache.tags.total_refs            3128344                       # Total number of references to valid blocks.
system.cpu0.dcache.tags.sampled_refs           373557                       # Sample count of references to valid blocks.
system.cpu0.dcache.tags.avg_refs             8.374476                       # Average number of references to valid blocks.
system.cpu0.dcache.tags.warmup_cycle           178500                       # Cycle when the warmup percentage was hit.
system.cpu0.dcache.tags.occ_blocks::.cpu0.data    15.999618                       # Average occupied blocks per requestor
system.cpu0.dcache.tags.occ_percent::.cpu0.data     0.999976                       # Average percentage of cache occupancy
system.cpu0.dcache.tags.occ_percent::total     0.999976                       # Average percentage of cache occupancy
system.cpu0.dcache.tags.occ_task_id_blocks::1024           16                       # Occupied blocks per task id
system.cpu0.dcache.tags.age_task_id_blocks_1024::0           15                       # Occupied blocks per task id
system.cpu0.dcache.tags.age_task_id_blocks_1024::4            1                       # Occupied blocks per task id
system.cpu0.dcache.tags.occ_task_id_percent::1024            1                       # Percentage of cache occupancy per task id
system.cpu0.dcache.tags.tag_accesses         28241125                       # Number of tag accesses
system.cpu0.dcache.tags.data_accesses        28241125                       # Number of data accesses
system.cpu0.dcache.tags.power_state.pwrStateResidencyTicks::UNDEFINED  33517523500                       # Cumulative time (in ticks) in various power states
system.cpu0.power_state.pwrStateResidencyTicks::ON  33517523500                       # Cumulative time (in ticks) in various power states
system.cpu0.itb.walker.power_state.pwrStateResidencyTicks::UNDEFINED  33517523500                       # Cumulative time (in ticks) in various power states
system.cpu1.icache.demand_hits::.cpu1.inst      1730761                       # number of demand (read+write) hits
system.cpu1.icache.demand_hits::total         1730761                       # number of demand (read+write) hits
system.cpu1.icache.overall_hits::.cpu1.inst      1730761                       # number of overall hits
system.cpu1.icache.overall_hits::total        1730761                       # number of overall hits
system.cpu1.icache.demand_misses::.cpu1.inst      1635883                       # number of demand (read+write) misses
system.cpu1.icache.demand_misses::total       1635883                       # number of demand (read+write) misses
system.cpu1.icache.overall_misses::.cpu1.inst      1635883                       # number of overall misses
system.cpu1.icache.overall_misses::total      1635883                       # number of overall misses
system.cpu1.icache.demand_miss_latency::.cpu1.inst  21587583000                       # number of demand (read+write) miss cycles
system.cpu1.icache.demand_miss_latency::total  21587583000                       # number of demand (read+write) miss cycles
system.cpu1.icache.overall_miss_latency::.cpu1.inst  21587583000                       # number of overall miss cycles
system.cpu1.icache.overall_miss_latency::total  21587583000                       # number of overall miss cycles
system.cpu1.icache.demand_accesses::.cpu1.inst      3366644                       # number of demand (read+write) accesses
system.cpu1.icache.demand_accesses::total      3366644                       # number of demand (read+write) accesses
system.cpu1.icache.overall_accesses::.cpu1.inst      3366644                       # number of overall (read+write) accesses
system.cpu1.icache.overall_accesses::total      3366644                       # number of overall (read+write) accesses
system.cpu1.icache.demand_miss_rate::.cpu1.inst     0.485909                       # miss rate for demand accesses
system.cpu1.icache.demand_miss_rate::total     0.485909                       # miss rate for demand accesses
system.cpu1.icache.overall_miss_rate::.cpu1.inst     0.485909                       # miss rate for overall accesses
system.cpu1.icache.overall_miss_rate::total     0.485909                       # miss rate for overall accesses
system.cpu1.icache.demand_avg_miss_latency::.cpu1.inst 13196.287876                       # average overall miss latency
system.cpu1.icache.demand_avg_miss_latency::total 13196.287876                       # average overall miss latency
system.cpu1.icache.overall_avg_miss_latency::.cpu1.inst 13196.287876                       # average overall miss latency
system.cpu1.icache.overall_avg_miss_latency::total 13196.287876                       # average overall miss latency
system.cpu1.icache.blocked_cycles::no_mshrs            0                       # number of cycles access was blocked
system.cpu1.icache.blocked_cycles::no_targets            0                       # number of cycles access was blocked
system.cpu1.icache.blocked::no_mshrs                0                       # number of cycles access was blocked
system.cpu1.icache.blocked::no_targets              0                       # number of cycles access was blocked
system.cpu1.icache.avg_blocked_cycles::no_mshrs          nan                       # average number of cycles each access was blocked
system.cpu1.icache.avg_blocked_cycles::no_targets          nan                       # average number of cycles each access was blocked
system.cpu1.icache.writebacks::.writebacks      1635867                       # number of writebacks
system.cpu1.icache.writebacks::total          1635867                       # number of writebacks
system.cpu1.icache.demand_mshr_misses::.cpu1.inst      1635883                       # number of demand (read+write) MSHR misses
system.cpu1.icache.demand_mshr_misses::total      1635883                       # number of demand (read+write) MSHR misses
system.cpu1.icache.overall_mshr_misses::.cpu1.inst      1635883                       # number of overall MSHR misses
system.cpu1.icache.overall_mshr_misses::total      1635883                       # number of overall MSHR misses
system.cpu1.icache.demand_mshr_miss_latency::.cpu1.inst  19951700000                       # number of demand (read+write) MSHR miss cycles
system.cpu1.icache.demand_mshr_miss_latency::total  19951700000                       # number of demand (read+write) MSHR miss cycles
system.cpu1.icache.overall_mshr_miss_latency::.cpu1.inst  19951700000                       # number of overall MSHR miss cycles
system.cpu1.icache.overall_mshr_miss_latency::total  19951700000                       # number of overall MSHR miss cycles
system.cpu1.icache.demand_mshr_miss_rate::.cpu1.inst     0.485909                       # mshr miss rate for demand accesses
system.cpu1.icache.demand_mshr_miss_rate::total     0.485909                       # mshr miss rate for demand accesses
system.cpu1.icache.overall_mshr_miss_rate::.cpu1.inst     0.485909                       # mshr miss rate for overall accesses
system.cpu1.icache.overall_mshr_miss_rate::total     0.485909                       # mshr miss rate for overall accesses
system.cpu1.icache.demand_avg_mshr_miss_latency::.cpu1.inst 12196.287876                       # average overall mshr miss latency
system.cpu1.icache.demand_avg_mshr_miss_latency::total 12196.287876                       # average overall mshr miss latency
system.cpu1.icache.overall_avg_mshr_miss_latency::.cpu1.inst 12196.287876                       # average overall mshr miss latency
system.cpu1.icache.overall_avg_mshr_miss_latency::total 12196.287876                       # average overall mshr miss latency
system.cpu1.icache.replacements               1635867                       # number of replacements
system.cpu1.icache.ReadReq_hits::.cpu1.inst      1730761                       # number of ReadReq hits
system.cpu1.icache.ReadReq_hits::total        1730761                       # number of ReadReq hits
system.cpu1.icache.ReadReq_misses::.cpu1.inst      1635883                       # number of ReadReq misses
system.cpu1.icache.ReadReq_misses::total      1635883                       # number of ReadReq misses
system.cpu1.icache.ReadReq_miss_latency::.cpu1.inst  21587583000                       # number of ReadReq miss cycles
system.cpu1.icache.ReadReq_miss_latency::total  21587583000                       # number of ReadReq miss cycles
system.cpu1.icache.ReadReq_accesses::.cpu1.inst      3366644                       # number of ReadReq accesses(hits+misses)
system.cpu1.icache.ReadReq_accesses::total      3366644                       # number of ReadReq accesses(hits+misses)
system.cpu1.icache.ReadReq_miss_rate::.cpu1.inst     0.485909                       # miss rate for ReadReq accesses
system.cpu1.icache.ReadReq_miss_rate::total     0.485909                       # miss rate for ReadReq accesses
system.cpu1.icache.ReadReq_avg_miss_latency::.cpu1.inst 13196.287876                       # average ReadReq miss latency
system.cpu1.icache.ReadReq_avg_miss_latency::total 13196.287876                       # average ReadReq miss latency
system.cpu1.icache.ReadReq_mshr_misses::.cpu1.inst      1635883                       # number of ReadReq MSHR misses
system.cpu1.icache.ReadReq_mshr_misses::total      1635883                       # number of ReadReq MSHR misses
system.cpu1.icache.ReadReq_mshr_miss_latency::.cpu1.inst  19951700000                       # number of ReadReq MSHR miss cycles
system.cpu1.icache.ReadReq_mshr_miss_latency::total  19951700000                       # number of ReadReq MSHR miss cycles
system.cpu1.icache.ReadReq_mshr_miss_rate::.cpu1.inst     0.485909                       # mshr miss rate for ReadReq accesses
system.cpu1.icache.ReadReq_mshr_miss_rate::total     0.485909                       # mshr miss rate for ReadReq accesses
system.cpu1.icache.ReadReq_avg_mshr_miss_latency::.cpu1.inst 12196.287876                       # average ReadReq mshr miss latency
system.cpu1.icache.ReadReq_avg_mshr_miss_latency::total 12196.287876                       # average ReadReq mshr miss latency
system.cpu1.icache.power_state.pwrStateResidencyTicks::UNDEFINED  33517523500                       # Cumulative time (in ticks) in various power states
system.cpu1.icache.tags.tagsinuse           15.999575                       # Cycle average of tags in use
system.cpu1.icache.tags.total_refs            3366644                       # Total number of references to valid blocks.
system.cpu1.icache.tags.sampled_refs          1635883                       # Sample count of references to valid blocks.
system.cpu1.icache.tags.avg_refs             2.057998                       # Average number of references to valid blocks.
system.cpu1.icache.tags.warmup_cycle            94500                       # Cycle when the warmup percentage was hit.
system.cpu1.icache.tags.occ_blocks::.cpu1.inst    15.999575                       # Average occupied blocks per requestor
system.cpu1.icache.tags.occ_percent::.cpu1.inst     0.999973                       # Average percentage of cache occupancy
system.cpu1.icache.tags.occ_percent::total     0.999973                       # Average percentage of cache occupancy
system.cpu1.icache.tags.occ_task_id_blocks::1024           16                       # Occupied blocks per task id
system.cpu1.icache.tags.age_task_id_blocks_1024::0           16                       # Occupied blocks per task id
system.cpu1.icache.tags.occ_task_id_percent::1024            1                       # Percentage of cache occupancy per task id
system.cpu1.icache.tags.tag_accesses         28569035                       # Number of tag accesses
system.cpu1.icache.tags.data_accesses        28569035                       # Number of data accesses
system.cpu1.icache.tags.power_state.pwrStateResidencyTicks::UNDEFINED  33517523500                       # Cumulative time (in ticks) in various power states
system.cpu1.dtb.walker.power_state.pwrStateResidencyTicks::UNDEFINED  33517523500                       # Cumulative time (in ticks) in various power states
system.cpu1.interrupts.clk_domain.clock          8000                       # Clock period in ticks
system.cpu1.itb_walker_cache.blocked_cycles::no_mshrs            0                       # number of cycles access was blocked
system.cpu1.itb_walker_cache.blocked_cycles::no_targets            0                       # number of cycles access was blocked
system.cpu1.itb_walker_cache.blocked::no_mshrs            0                       # number of cycles access was blocked
system.cpu1.itb_walker_cache.blocked::no_targets            0                       # number of cycles access was blocked
system.cpu1.itb_walker_cache.avg_blocked_cycles::no_mshrs          nan                       # average number of cycles each access was blocked
system.cpu1.itb_walker_cache.avg_blocked_cycles::no_targets          nan                       # average number of cycles each access was blocked
system.cpu1.itb_walker_cache.replacements            0                       # number of replacements
system.cpu1.itb_walker_cache.power_state.pwrStateResidencyTicks::UNDEFINED  33517523500                       # Cumulative time (in ticks) in various power states
system.cpu1.itb_walker_cache.tags.tagsinuse            0                       # Cycle average of tags in use
system.cpu1.itb_walker_cache.tags.total_refs            0                       # Total number of references to valid blocks.
system.cpu1.itb_walker_cache.tags.sampled_refs            0                       # Sample count of references to valid blocks.
system.cpu1.itb_walker_cache.tags.avg_refs          nan                       # Average number of references to valid blocks.
system.cpu1.itb_walker_cache.tags.warmup_cycle            0                       # Cycle when the warmup percentage was hit.
system.cpu1.itb_walker_cache.tags.tag_accesses            0                       # Number of tag accesses
system.cpu1.itb_walker_cache.tags.data_accesses            0                       # Number of data accesses
system.cpu1.itb_walker_cache.tags.power_state.pwrStateResidencyTicks::UNDEFINED  33517523500                       # Cumulative time (in ticks) in various power states
system.cpu1.dtb_walker_cache.blocked_cycles::no_mshrs            0                       # number of cycles access was blocked
system.cpu1.dtb_walker_cache.blocked_cycles::no_targets            0                       # number of cycles access was blocked
system.cpu1.dtb_walker_cache.blocked::no_mshrs            0                       # number of cycles access was blocked
system.cpu1.dtb_walker_cache.blocked::no_targets            0                       # number of cycles access was blocked
system.cpu1.dtb_walker_cache.avg_blocked_cycles::no_mshrs          nan                       # average number of cycles each access was blocked
system.cpu1.dtb_walker_cache.avg_blocked_cycles::no_targets          nan                       # average number of cycles each access was blocked
system.cpu1.dtb_walker_cache.replacements            0                       # number of replacements
system.cpu1.dtb_walker_cache.power_state.pwrStateResidencyTicks::UNDEFINED  33517523500                       # Cumulative time (in ticks) in various power states
system.cpu1.dtb_walker_cache.tags.tagsinuse            0                       # Cycle average of tags in use
system.cpu1.dtb_walker_cache.tags.total_refs            0                       # Total number of references to valid blocks.
system.cpu1.dtb_walker_cache.tags.sampled_refs            0                       # Sample count of references to valid blocks.
system.cpu1.dtb_walker_cache.tags.avg_refs          nan                       # Average number of references to valid blocks.
system.cpu1.dtb_walker_cache.tags.warmup_cycle            0                       # Cycle when the warmup percentage was hit.
system.cpu1.dtb_walker_cache.tags.tag_accesses            0                       # Number of tag accesses
system.cpu1.dtb_walker_cache.tags.data_accesses            0                       # Number of data accesses
system.cpu1.dtb_walker_cache.tags.power_state.pwrStateResidencyTicks::UNDEFINED  33517523500                       # Cumulative time (in ticks) in various power states
system.cpu1.dcache.demand_hits::.cpu1.data      3401992                       # number of demand (read+write) hits
system.cpu1.dcache.demand_hits::total         3401992                       # number of demand (read+write) hits
system.cpu1.dcache.overall_hits::.cpu1.data      3401992                       # number of overall hits
system.cpu1.dcache.overall_hits::total        3401992                       # number of overall hits
system.cpu1.dcache.demand_misses::.cpu1.data       722701                       # number of demand (read+write) misses
system.cpu1.dcache.demand_misses::total        722701                       # number of demand (read+write) misses
system.cpu1.dcache.overall_misses::.cpu1.data       722701                       # number of overall misses
system.cpu1.dcache.overall_misses::total       722701                       # number of overall misses
system.cpu1.dcache.demand_miss_latency::.cpu1.data  14355276000                       # number of demand (read+write) miss cycles
system.cpu1.dcache.demand_miss_latency::total  14355276000                       # number of demand (read+write) miss cycles
system.cpu1.dcache.overall_miss_latency::.cpu1.data  14355276000                       # number of overall miss cycles
system.cpu1.dcache.overall_miss_latency::total  14355276000                       # number of overall miss cycles
system.cpu1.dcache.demand_accesses::.cpu1.data      4124693                       # number of demand (read+write) accesses
system.cpu1.dcache.demand_accesses::total      4124693                       # number of demand (read+write) accesses
system.cpu1.dcache.overall_accesses::.cpu1.data      4124693                       # number of overall (read+write) accesses
system.cpu1.dcache.overall_accesses::total      4124693                       # number of overall (read+write) accesses
system.cpu1.dcache.demand_miss_rate::.cpu1.data     0.175213                       # miss rate for demand accesses
system.cpu1.dcache.demand_miss_rate::total     0.175213                       # miss rate for demand accesses
system.cpu1.dcache.overall_miss_rate::.cpu1.data     0.175213                       # miss rate for overall accesses
system.cpu1.dcache.overall_miss_rate::total     0.175213                       # miss rate for overall accesses
system.cpu1.dcache.demand_avg_miss_latency::.cpu1.data 19863.368115                       # average overall miss latency
system.cpu1.dcache.demand_avg_miss_latency::total 19863.368115                       # average overall miss latency
system.cpu1.dcache.overall_avg_miss_latency::.cpu1.data 19863.368115                       # average overall miss latency
system.cpu1.dcache.overall_avg_miss_latency::total 19863.368115                       # average overall miss latency
system.cpu1.dcache.blocked_cycles::no_mshrs            0                       # number of cycles access was blocked
system.cpu1.dcache.blocked_cycles::no_targets            0                       # number of cycles access was blocked
system.cpu1.dcache.blocked::no_mshrs                0                       # number of cycles access was blocked
system.cpu1.dcache.blocked::no_targets              0                       # number of cycles access was blocked
system.cpu1.dcache.avg_blocked_cycles::no_mshrs          nan                       # average number of cycles each access was blocked
system.cpu1.dcache.avg_blocked_cycles::no_targets          nan                       # average number of cycles each access was blocked
system.cpu1.dcache.writebacks::.writebacks       420294                       # number of writebacks
system.cpu1.dcache.writebacks::total           420294                       # number of writebacks
system.cpu1.dcache.demand_mshr_hits::.cpu1.data        85439                       # number of demand (read+write) MSHR hits
system.cpu1.dcache.demand_mshr_hits::total        85439                       # number of demand (read+write) MSHR hits
system.cpu1.dcache.overall_mshr_hits::.cpu1.data        85439                       # number of overall MSHR hits
system.cpu1.dcache.overall_mshr_hits::total        85439                       # number of overall MSHR hits
system.cpu1.dcache.demand_mshr_misses::.cpu1.data       637262                       # number of demand (read+write) MSHR misses
system.cpu1.dcache.demand_mshr_misses::total       637262                       # number of demand (read+write) MSHR misses
system.cpu1.dcache.overall_mshr_misses::.cpu1.data       637262                       # number of overall MSHR misses
system.cpu1.dcache.overall_mshr_misses::total       637262                       # number of overall MSHR misses
system.cpu1.dcache.demand_mshr_miss_latency::.cpu1.data  11267281500                       # number of demand (read+write) MSHR miss cycles
system.cpu1.dcache.demand_mshr_miss_latency::total  11267281500                       # number of demand (read+write) MSHR miss cycles
system.cpu1.dcache.overall_mshr_miss_latency::.cpu1.data  11267281500                       # number of overall MSHR miss cycles
system.cpu1.dcache.overall_mshr_miss_latency::total  11267281500                       # number of overall MSHR miss cycles
system.cpu1.dcache.demand_mshr_miss_rate::.cpu1.data     0.154499                       # mshr miss rate for demand accesses
system.cpu1.dcache.demand_mshr_miss_rate::total     0.154499                       # mshr miss rate for demand accesses
system.cpu1.dcache.overall_mshr_miss_rate::.cpu1.data     0.154499                       # mshr miss rate for overall accesses
system.cpu1.dcache.overall_mshr_miss_rate::total     0.154499                       # mshr miss rate for overall accesses
system.cpu1.dcache.demand_avg_mshr_miss_latency::.cpu1.data 17680.767879                       # average overall mshr miss latency
system.cpu1.dcache.demand_avg_mshr_miss_latency::total 17680.767879                       # average overall mshr miss latency
system.cpu1.dcache.overall_avg_mshr_miss_latency::.cpu1.data 17680.767879                       # average overall mshr miss latency
system.cpu1.dcache.overall_avg_mshr_miss_latency::total 17680.767879                       # average overall mshr miss latency
system.cpu1.dcache.replacements                637246                       # number of replacements
system.cpu1.dcache.ReadReq_hits::.cpu1.data      1963603                       # number of ReadReq hits
system.cpu1.dcache.ReadReq_hits::total        1963603                       # number of ReadReq hits
system.cpu1.dcache.ReadReq_misses::.cpu1.data       466705                       # number of ReadReq misses
system.cpu1.dcache.ReadReq_misses::total       466705                       # number of ReadReq misses
system.cpu1.dcache.ReadReq_miss_latency::.cpu1.data   7027606500                       # number of ReadReq miss cycles
system.cpu1.dcache.ReadReq_miss_latency::total   7027606500                       # number of ReadReq miss cycles
system.cpu1.dcache.ReadReq_accesses::.cpu1.data      2430308                       # number of ReadReq accesses(hits+misses)
system.cpu1.dcache.ReadReq_accesses::total      2430308                       # number of ReadReq accesses(hits+misses)
system.cpu1.dcache.ReadReq_miss_rate::.cpu1.data     0.192035                       # miss rate for ReadReq accesses
system.cpu1.dcache.ReadReq_miss_rate::total     0.192035                       # miss rate for ReadReq accesses
system.cpu1.dcache.ReadReq_avg_miss_latency::.cpu1.data 15057.919885                       # average ReadReq miss latency
system.cpu1.dcache.ReadReq_avg_miss_latency::total 15057.919885                       # average ReadReq miss latency
system.cpu1.dcache.ReadReq_mshr_hits::.cpu1.data        18097                       # number of ReadReq MSHR hits
system.cpu1.dcache.ReadReq_mshr_hits::total        18097                       # number of ReadReq MSHR hits
system.cpu1.dcache.ReadReq_mshr_misses::.cpu1.data       448608                       # number of ReadReq MSHR misses
system.cpu1.dcache.ReadReq_mshr_misses::total       448608                       # number of ReadReq MSHR misses
system.cpu1.dcache.ReadReq_mshr_miss_latency::.cpu1.data   6318378000                       # number of ReadReq MSHR miss cycles
system.cpu1.dcache.ReadReq_mshr_miss_latency::total   6318378000                       # number of ReadReq MSHR miss cycles
system.cpu1.dcache.ReadReq_mshr_miss_rate::.cpu1.data     0.184589                       # mshr miss rate for ReadReq accesses
system.cpu1.dcache.ReadReq_mshr_miss_rate::total     0.184589                       # mshr miss rate for ReadReq accesses
system.cpu1.dcache.ReadReq_avg_mshr_miss_latency::.cpu1.data 14084.407768                       # average ReadReq mshr miss latency
system.cpu1.dcache.ReadReq_avg_mshr_miss_latency::total 14084.407768                       # average ReadReq mshr miss latency
system.cpu1.dcache.WriteReq_hits::.cpu1.data      1438389                       # number of WriteReq hits
system.cpu1.dcache.WriteReq_hits::total       1438389                       # number of WriteReq hits
system.cpu1.dcache.WriteReq_misses::.cpu1.data       255996                       # number of WriteReq misses
system.cpu1.dcache.WriteReq_misses::total       255996                       # number of WriteReq misses
system.cpu1.dcache.WriteReq_miss_latency::.cpu1.data   7327669500                       # number of WriteReq miss cycles
system.cpu1.dcache.WriteReq_miss_latency::total   7327669500                       # number of WriteReq miss cycles
system.cpu1.dcache.WriteReq_accesses::.cpu1.data      1694385                       # number of WriteReq accesses(hits+misses)
system.cpu1.dcache.WriteReq_accesses::total      1694385                       # number of WriteReq accesses(hits+misses)
[...]
system.mem_ctrls.bytesPerActivate::mean    558.031257                       # Bytes accessed per row activation
system.mem_ctrls.bytesPerActivate::gmean   344.691526                       # Bytes accessed per row activation
system.mem_ctrls.bytesPerActivate::stdev   423.724613                       # Bytes accessed per row activation
system.mem_ctrls.bytesPerActivate::0-127        18072     19.89%     19.89% # Bytes accessed per row activation
system.mem_ctrls.bytesPerActivate::128-255        18290     20.13%     40.02% # Bytes accessed per row activation
system.mem_ctrls.bytesPerActivate::256-383         5911      6.51%     46.53% # Bytes accessed per row activation
system.mem_ctrls.bytesPerActivate::384-511         3735      4.11%     50.64% # Bytes accessed per row activation
system.mem_ctrls.bytesPerActivate::512-639         2314      2.55%     53.18% # Bytes accessed per row activation
system.mem_ctrls.bytesPerActivate::640-767         2115      2.33%     55.51% # Bytes accessed per row activation
system.mem_ctrls.bytesPerActivate::768-895         1750      1.93%     57.44% # Bytes accessed per row activation
system.mem_ctrls.bytesPerActivate::896-1023         1822      2.01%     59.44% # Bytes accessed per row activation
system.mem_ctrls.bytesPerActivate::1024-1151        36851     40.56%    100.00% # Bytes accessed per row activation
system.mem_ctrls.bytesPerActivate::total        90860                       # Bytes accessed per row activation
system.mem_ctrls.rdPerTurnAround::samples        24314                       # Reads before turning the bus around for writes
system.mem_ctrls.rdPerTurnAround::mean      16.543350                       # Reads before turning the bus around for writes
system.mem_ctrls.rdPerTurnAround::gmean     16.283067                       # Reads before turning the bus around for writes
system.mem_ctrls.rdPerTurnAround::stdev      7.816703                       # Reads before turning the bus around for writes
system.mem_ctrls.rdPerTurnAround::0-31          24187     99.48%     99.48% # Reads before turning the bus around for writes
system.mem_ctrls.rdPerTurnAround::32-63            63      0.26%     99.74% # Reads before turning the bus around for writes
system.mem_ctrls.rdPerTurnAround::64-95            33      0.14%     99.87% # Reads before turning the bus around for writes
system.mem_ctrls.rdPerTurnAround::96-127           15      0.06%     99.93% # Reads before turning the bus around for writes
system.mem_ctrls.rdPerTurnAround::128-159            4      0.02%     99.95% # Reads before turning the bus around for writes
system.mem_ctrls.rdPerTurnAround::160-191            6      0.02%     99.98% # Reads before turning the bus around for writes
system.mem_ctrls.rdPerTurnAround::192-223            4      0.02%     99.99% # Reads before turning the bus around for writes
system.mem_ctrls.rdPerTurnAround::256-287            1      0.00%    100.00% # Reads before turning the bus around for writes
system.mem_ctrls.rdPerTurnAround::832-863            1      0.00%    100.00% # Reads before turning the bus around for writes
system.mem_ctrls.rdPerTurnAround::total         24314                       # Reads before turning the bus around for writes
system.mem_ctrls.wrPerTurnAround::samples        24314                       # Writes before turning the bus around for reads
system.mem_ctrls.wrPerTurnAround::mean      16.040882                       # Writes before turning the bus around for reads
system.mem_ctrls.wrPerTurnAround::gmean     16.037781                       # Writes before turning the bus around for reads
system.mem_ctrls.wrPerTurnAround::stdev      0.333205                       # Writes before turning the bus around for reads
system.mem_ctrls.wrPerTurnAround::16            23920     98.38%     98.38% # Writes before turning the bus around for reads
system.mem_ctrls.wrPerTurnAround::17               44      0.18%     98.56% # Writes before turning the bus around for reads
system.mem_ctrls.wrPerTurnAround::18              121      0.50%     99.06% # Writes before turning the bus around for reads
system.mem_ctrls.wrPerTurnAround::19              210      0.86%     99.92% # Writes before turning the bus around for reads
system.mem_ctrls.wrPerTurnAround::20               17      0.07%     99.99% # Writes before turning the bus around for reads
system.mem_ctrls.wrPerTurnAround::21                2      0.01%    100.00% # Writes before turning the bus around for reads
system.mem_ctrls.wrPerTurnAround::total         24314                       # Writes before turning the bus around for reads
system.mem_ctrls.bytesReadDRAM               25743808                       # Total number of bytes read from DRAM
system.mem_ctrls.bytesReadWrQ                    6464                       # Total number of bytes read from write queue
system.mem_ctrls.bytesWritten                24961152                       # Total number of bytes written to DRAM
system.mem_ctrls.bytesReadSys                25750272                       # Total read bytes from the system interface side
system.mem_ctrls.bytesWrittenSys             24963200                       # Total written bytes from the system interface side
system.mem_ctrls.avgRdBW                       768.07                       # Average DRAM read bandwidth in MiByte/s
system.mem_ctrls.avgWrBW                       744.72                       # Average achieved write bandwidth in MiByte/s
system.mem_ctrls.avgRdBWSys                    768.26                       # Average system read bandwidth in MiByte/s
system.mem_ctrls.avgWrBWSys                    744.78                       # Average system write bandwidth in MiByte/s
system.mem_ctrls.peakBW                      12800.00                       # Theoretical peak bandwidth in MiByte/s
system.mem_ctrls.busUtil                        11.82                       # Data bus utilization in percentage
system.mem_ctrls.busUtilRead                     6.00                       # Data bus utilization in percentage for reads
system.mem_ctrls.busUtilWrite                    5.82                       # Data bus utilization in percentage for writes
system.mem_ctrls.totGap                   33517495000                       # Total gap between requests
system.mem_ctrls.avgGap                      42298.81                       # Average gap between requests
system.mem_ctrls.masterReadBytes::.cpu0.inst       111104                       # Per-master bytes read from memory
system.mem_ctrls.masterReadBytes::.cpu0.data     22728448                       # Per-master bytes read from memory
system.mem_ctrls.masterReadBytes::.cpu1.inst       211520                       # Per-master bytes read from memory
system.mem_ctrls.masterReadBytes::.cpu1.data      2692736                       # Per-master bytes read from memory
system.mem_ctrls.masterWriteBytes::.writebacks     24961152                       # Per-master bytes write to memory
system.mem_ctrls.masterReadRate::.cpu0.inst 3314803.374419950880                       # Per-master bytes read from memory rate (Bytes/sec)
system.mem_ctrls.masterReadRate::.cpu0.data 678106423.942687749863                       # Per-master bytes read from memory rate (Bytes/sec)
system.mem_ctrls.masterReadRate::.cpu1.inst 6310728.774457337335                       # Per-master bytes read from memory rate (Bytes/sec)
system.mem_ctrls.masterReadRate::.cpu1.data 80338155.054922237992                       # Per-master bytes read from memory rate (Bytes/sec)
system.mem_ctrls.masterWriteRate::.writebacks 744719459.956520915031                       # Per-master bytes write to memory rate (Bytes/sec)
system.mem_ctrls.masterReadAccesses::.cpu0.inst         1736                       # Per-master read serviced memory accesses
system.mem_ctrls.masterReadAccesses::.cpu0.data       355177                       # Per-master read serviced memory accesses
system.mem_ctrls.masterReadAccesses::.cpu1.inst         3305                       # Per-master read serviced memory accesses
system.mem_ctrls.masterReadAccesses::.cpu1.data        42130                       # Per-master read serviced memory accesses
system.mem_ctrls.masterWriteAccesses::.writebacks       390050                       # Per-master write serviced memory accesses
system.mem_ctrls.masterReadTotalLat::.cpu0.inst     51228750                       # Per-master read total memory access latency
system.mem_ctrls.masterReadTotalLat::.cpu0.data  10361241500                       # Per-master read total memory access latency
system.mem_ctrls.masterReadTotalLat::.cpu1.inst    121707500                       # Per-master read total memory access latency
system.mem_ctrls.masterReadTotalLat::.cpu1.data   1603068500                       # Per-master read total memory access latency
system.mem_ctrls.masterWriteTotalLat::.writebacks 832951321000                       # Per-master write total memory access latency
system.mem_ctrls.masterReadAvgLat::.cpu0.inst     29509.65                       # Per-master read average memory access latency
system.mem_ctrls.masterReadAvgLat::.cpu0.data     29172.05                       # Per-master read average memory access latency
system.mem_ctrls.masterReadAvgLat::.cpu1.inst     36825.26                       # Per-master read average memory access latency
system.mem_ctrls.masterReadAvgLat::.cpu1.data     38050.52                       # Per-master read average memory access latency
system.mem_ctrls.masterWriteAvgLat::.writebacks   2135498.84                       # Per-master write average memory access latency
system.mem_ctrls.pageHitRate                    88.53                       # Row buffer hit rate, read and write combined
system.mem_ctrls.rank1.actEnergy            323527680                       # Energy for activate commands per rank (pJ)
system.mem_ctrls.rank1.preEnergy            171959040                       # Energy for precharge commands per rank (pJ)
system.mem_ctrls.rank1.readEnergy          1432383960                       # Energy for read commands per rank (pJ)
system.mem_ctrls.rank1.writeEnergy         1017545040                       # Energy for write commands per rank (pJ)
system.mem_ctrls.rank1.refreshEnergy     2645410560.000000                       # Energy for refresh commands per rank (pJ)
system.mem_ctrls.rank1.actBackEnergy      13654316370                       # Energy for active background per rank (pJ)
system.mem_ctrls.rank1.preBackEnergy       1372357440                       # Energy for precharge background per rank (pJ)
system.mem_ctrls.rank1.actPowerDownEnergy            0                       # Energy for active power-down per rank (pJ)
system.mem_ctrls.rank1.prePowerDownEnergy            0                       # Energy for precharge power-down per rank (pJ)
system.mem_ctrls.rank1.selfRefreshEnergy            0                       # Energy for self refresh per rank (pJ)
system.mem_ctrls.rank1.totalEnergy        20617500090                       # Total energy per rank (pJ)
system.mem_ctrls.rank1.averagePower        615.125998                       # Core power per rank (mW)
system.mem_ctrls.rank1.totalIdleTime                0                       # Total Idle time Per DRAM Rank
system.mem_ctrls.rank1.memoryStateTime::IDLE   3422228250                       # Time in different power states
system.mem_ctrls.rank1.memoryStateTime::REF   1119040000                       # Time in different power states
system.mem_ctrls.rank1.memoryStateTime::SREF            0                       # Time in different power states
system.mem_ctrls.rank1.memoryStateTime::PRE_PDN            0                       # Time in different power states
system.mem_ctrls.rank1.memoryStateTime::ACT  28976255250                       # Time in different power states
system.mem_ctrls.rank1.memoryStateTime::ACT_PDN            0                       # Time in different power states
system.mem_ctrls.rank0.actEnergy            325241280                       # Energy for activate commands per rank (pJ)
system.mem_ctrls.rank0.preEnergy            172854660                       # Energy for precharge commands per rank (pJ)
system.mem_ctrls.rank0.readEnergy          1439659620                       # Energy for read commands per rank (pJ)
system.mem_ctrls.rank0.writeEnergy         1018348920                       # Energy for write commands per rank (pJ)
system.mem_ctrls.rank0.refreshEnergy     2645410560.000000                       # Energy for refresh commands per rank (pJ)
system.mem_ctrls.rank0.actBackEnergy      13653751500                       # Energy for active background per rank (pJ)
system.mem_ctrls.rank0.preBackEnergy       1372833120                       # Energy for precharge background per rank (pJ)
system.mem_ctrls.rank0.actPowerDownEnergy            0                       # Energy for active power-down per rank (pJ)
system.mem_ctrls.rank0.prePowerDownEnergy            0                       # Energy for precharge power-down per rank (pJ)
system.mem_ctrls.rank0.selfRefreshEnergy            0                       # Energy for self refresh per rank (pJ)
system.mem_ctrls.rank0.totalEnergy        20628099660                       # Total energy per rank (pJ)
system.mem_ctrls.rank0.averagePower        615.442238                       # Core power per rank (mW)
system.mem_ctrls.rank0.totalIdleTime                0                       # Total Idle time Per DRAM Rank
system.mem_ctrls.rank0.memoryStateTime::IDLE   3421865500                       # Time in different power states
system.mem_ctrls.rank0.memoryStateTime::REF   1119040000                       # Time in different power states
system.mem_ctrls.rank0.memoryStateTime::SREF            0                       # Time in different power states
system.mem_ctrls.rank0.memoryStateTime::PRE_PDN            0                       # Time in different power states
system.mem_ctrls.rank0.memoryStateTime::ACT  28976618000                       # Time in different power states
system.mem_ctrls.rank0.memoryStateTime::ACT_PDN            0                       # Time in different power states
system.mem_ctrls.power_state.pwrStateResidencyTicks::UNDEFINED  33517523500                       # Cumulative time (in ticks) in various power states
system.cpu_clk_domain.clock                       500                       # Clock period in ticks
system.tol2bus.trans_dist::ReadResp           2109474                       # Transaction distribution
system.tol2bus.trans_dist::WritebackDirty      1169546                       # Transaction distribution
system.tol2bus.trans_dist::WritebackClean      1644737                       # Transaction distribution
system.tol2bus.trans_dist::CleanEvict          242669                       # Transaction distribution
system.tol2bus.trans_dist::ReadExReq           546115                       # Transaction distribution
system.tol2bus.trans_dist::ReadExResp          546114                       # Transaction distribution
system.tol2bus.trans_dist::ReadCleanReq       1644769                       # Transaction distribution
system.tol2bus.trans_dist::ReadSharedReq       464705                       # Transaction distribution
system.tol2bus.pkt_count_system.cpu0.icache.mem_side::system.l2.cpu_side        26642                       # Packet count per connected master and slave (bytes)
system.tol2bus.pkt_count_system.cpu0.dcache.mem_side::system.l2.cpu_side      1120656                       # Packet count per connected master and slave (bytes)
system.tol2bus.pkt_count_system.cpu1.icache.mem_side::system.l2.cpu_side      4907633                       # Packet count per connected master and slave (bytes)
system.tol2bus.pkt_count_system.cpu1.dcache.mem_side::system.l2.cpu_side      1911770                       # Packet count per connected master and slave (bytes)
system.tol2bus.pkt_count::total               7966701                       # Packet count per connected master and slave (bytes)
system.tol2bus.pkt_size_system.cpu0.icache.mem_side::system.l2.cpu_side      1136384                       # Cumulative packet size per connected master and slave (bytes)
system.tol2bus.pkt_size_system.cpu0.dcache.mem_side::system.l2.cpu_side     46896576                       # Cumulative packet size per connected master and slave (bytes)
system.tol2bus.pkt_size_system.cpu1.icache.mem_side::system.l2.cpu_side    209392000                       # Cumulative packet size per connected master and slave (bytes)
system.tol2bus.pkt_size_system.cpu1.dcache.mem_side::system.l2.cpu_side     67683584                       # Cumulative packet size per connected master and slave (bytes)
system.tol2bus.pkt_size::total              325108544                       # Cumulative packet size per connected master and slave (bytes)
system.tol2bus.snoops                          401428                       # Total snoops (count)
system.tol2bus.snoopTraffic                  24963200                       # Total snoop traffic (bytes)
system.tol2bus.snoop_fanout::samples          3057017                       # Request fanout histogram
system.tol2bus.snoop_fanout::mean            0.000043                       # Request fanout histogram
system.tol2bus.snoop_fanout::stdev           0.006571                       # Request fanout histogram
system.tol2bus.snoop_fanout::underflows             0      0.00%      0.00% # Request fanout histogram
system.tol2bus.snoop_fanout::0                3056885    100.00%    100.00% # Request fanout histogram
system.tol2bus.snoop_fanout::1                    132      0.00%    100.00% # Request fanout histogram
system.tol2bus.snoop_fanout::2                      0      0.00%    100.00% # Request fanout histogram
system.tol2bus.snoop_fanout::3                      0      0.00%    100.00% # Request fanout histogram
system.tol2bus.snoop_fanout::4                      0      0.00%    100.00% # Request fanout histogram
system.tol2bus.snoop_fanout::5                      0      0.00%    100.00% # Request fanout histogram
system.tol2bus.snoop_fanout::6                      0      0.00%    100.00% # Request fanout histogram
system.tol2bus.snoop_fanout::7                      0      0.00%    100.00% # Request fanout histogram
system.tol2bus.snoop_fanout::8                      0      0.00%    100.00% # Request fanout histogram
system.tol2bus.snoop_fanout::overflows              0      0.00%    100.00% # Request fanout histogram
system.tol2bus.snoop_fanout::min_value              0                       # Request fanout histogram
system.tol2bus.snoop_fanout::max_value              1                       # Request fanout histogram
system.tol2bus.snoop_fanout::total            3057017                       # Request fanout histogram
system.tol2bus.reqLayer0.occupancy         5079789500                       # Layer occupancy (ticks)
system.tol2bus.reqLayer0.utilization             15.2                       # Layer utilization (%)
system.tol2bus.respLayer5.occupancy         955942900                       # Layer occupancy (ticks)
system.tol2bus.respLayer5.utilization             2.9                       # Layer utilization (%)
system.tol2bus.respLayer4.occupancy        2453871406                       # Layer occupancy (ticks)
system.tol2bus.respLayer4.utilization             7.3                       # Layer utilization (%)
system.tol2bus.respLayer1.occupancy         565613921                       # Layer occupancy (ticks)
system.tol2bus.respLayer1.utilization             1.7                       # Layer utilization (%)
system.tol2bus.respLayer0.occupancy          13351954                       # Layer occupancy (ticks)
system.tol2bus.respLayer0.utilization             0.0                       # Layer utilization (%)
system.tol2bus.power_state.pwrStateResidencyTicks::UNDEFINED  33517523500                       # Cumulative time (in ticks) in various power states

---------- End Simulation Statistics   ----------
