
---------- Begin Simulation Statistics ----------
final_tick                                22663282000                       # Number of ticks from beginning of simulation (restored from checkpoints and never reset)
host_inst_rate                                 217872                       # Simulator instruction rate (inst/s)
host_mem_usage                                4437596                       # Number of bytes of host memory used
host_op_rate                                   371790                       # Simulator op (including micro ops) rate (op/s)
host_seconds                                    63.34                       # Real time elapsed on the host
host_tick_rate                              357830654                       # Simulator tick rate (ticks/s)
sim_freq                                 1000000000000                       # Frequency of simulated ticks
sim_insts                                    13798975                       # Number of instructions simulated
sim_ops                                      23547387                       # Number of ops (including micro ops) simulated
sim_seconds                                  0.022663                       # Number of seconds simulated
sim_ticks                                 22663282000                       # Number of ticks simulated
system.cpu0.branchPred.BTBCorrect                   0                       # Number of correct BTB predictions (this stat may not work properly.
system.cpu0.branchPred.BTBHitPct                  nan                       # BTB Hit Percentage
system.cpu0.branchPred.BTBHits                      0                       # Number of BTB hits
system.cpu0.branchPred.BTBLookups                   0                       # Number of BTB lookups
system.cpu0.branchPred.RASInCorrect                 0                       # Number of incorrect RAS predictions.
system.cpu0.branchPred.condIncorrect               37                       # Number of conditional branches incorrect
system.cpu0.branchPred.condPredicted               81                       # Number of conditional branches predicted
system.cpu0.branchPred.indirectHits                 0                       # Number of indirect target hits.
system.cpu0.branchPred.indirectLookups             24                       # Number of indirect predictor lookups.
system.cpu0.branchPred.indirectMisses              24                       # Number of indirect misses.
system.cpu0.branchPred.lookups                     81                       # Number of BP lookups
system.cpu0.branchPred.usedRAS                      0                       # Number of times the RAS was used to get a target.
system.cpu0.branchPredindirectMispredicted           11                       # Number of mispredicted indirect branches.
system.cpu0.committedInsts                   10000000                       # Number of instructions committed
system.cpu0.committedOps                     16363461                       # Number of ops (including micro ops) committed
system.cpu0.cpi                              4.532656                       # CPI: cycles per instruction
system.cpu0.discardedOps                      5149621                       # Number of ops (including micro ops) which were discarded before commit
system.cpu0.dtb.rdAccesses                    1469160                       # TLB accesses on read requests
system.cpu0.dtb.rdMisses                         2717                       # TLB misses on read requests
system.cpu0.dtb.wrAccesses                     672209                       # TLB accesses on write requests
system.cpu0.dtb.wrMisses                           87                       # TLB misses on write requests
system.cpu0.fetch2.amo_instructions                 0                       # Number of memory atomic instructions successfully decoded
system.cpu0.fetch2.fp_instructions                  0                       # Number of floating point instructions successfully decoded
system.cpu0.fetch2.int_instructions                 9                       # Number of integer instructions successfully decoded
system.cpu0.fetch2.load_instructions                0                       # Number of memory load instructions successfully decoded
system.cpu0.fetch2.store_instructions               0                       # Number of memory store instructions successfully decoded
system.cpu0.fetch2.vec_instructions                 0                       # Number of SIMD instructions successfully decoded
system.cpu0.idleCycles                       12641624                       # Total number of cycles that the object has spent stopped
system.cpu0.ipc                              0.220621                       # IPC: instructions per cycle
system.cpu0.itb.rdAccesses                          0                       # TLB accesses on read requests
system.cpu0.itb.rdMisses                            0                       # TLB misses on read requests
system.cpu0.itb.wrAccesses                    4764130                       # TLB accesses on write requests
system.cpu0.itb.wrMisses                          253                       # TLB misses on write requests
system.cpu0.numCycles                        45326564                       # number of cpu cycles simulated
system.cpu0.numFetchSuspends                        0                       # Number of times Execute suspended instruction fetching
system.cpu0.numWorkItemsCompleted                   0                       # number of work items this cpu completed
system.cpu0.numWorkItemsStarted                     0                       # number of work items this cpu started
system.cpu0.op_class_0::No_OpClass              12560      0.08%      0.08% # Class of committed instruction
system.cpu0.op_class_0::IntAlu               14085339     86.08%     86.15% # Class of committed instruction
system.cpu0.op_class_0::IntMult                  6224      0.04%     86.19% # Class of committed instruction
system.cpu0.op_class_0::IntDiv                   1592      0.01%     86.20% # Class of committed instruction
system.cpu0.op_class_0::FloatAdd               139604      0.85%     87.06% # Class of committed instruction
system.cpu0.op_class_0::FloatCmp                    0      0.00%     87.06% # Class of committed instruction
system.cpu0.op_class_0::FloatCvt                  144      0.00%     87.06% # Class of committed instruction
system.cpu0.op_class_0::FloatMult                   0      0.00%     87.06% # Class of committed instruction
system.cpu0.op_class_0::FloatMultAcc                0      0.00%     87.06% # Class of committed instruction
system.cpu0.op_class_0::FloatDiv                    0      0.00%     87.06% # Class of committed instruction
system.cpu0.op_class_0::FloatMisc                   0      0.00%     87.06% # Class of committed instruction
system.cpu0.op_class_0::FloatSqrt                   0      0.00%     87.06% # Class of committed instruction
system.cpu0.op_class_0::SimdAdd                  1170      0.01%     87.06% # Class of committed instruction
system.cpu0.op_class_0::SimdAddAcc                  0      0.00%     87.06% # Class of committed instruction
system.cpu0.op_class_0::SimdAlu                  1323      0.01%     87.07% # Class of committed instruction
system.cpu0.op_class_0::SimdCmp                     6      0.00%     87.07% # Class of committed instruction
system.cpu0.op_class_0::SimdCvt                  1838      0.01%     87.08% # Class of committed instruction
system.cpu0.op_class_0::SimdMisc                17658      0.11%     87.19% # Class of committed instruction
system.cpu0.op_class_0::SimdMult                    0      0.00%     87.19% # Class of committed instruction
system.cpu0.op_class_0::SimdMultAcc                 0      0.00%     87.19% # Class of committed instruction
system.cpu0.op_class_0::SimdShift                 408      0.00%     87.19% # Class of committed instruction
system.cpu0.op_class_0::SimdShiftAcc                0      0.00%     87.19% # Class of committed instruction
system.cpu0.op_class_0::SimdDiv                     0      0.00%     87.19% # Class of committed instruction
system.cpu0.op_class_0::SimdSqrt                    0      0.00%     87.19% # Class of committed instruction
system.cpu0.op_class_0::SimdFloatAdd            28658      0.18%     87.37% # Class of committed instruction
system.cpu0.op_class_0::SimdFloatAlu                0      0.00%     87.37% # Class of committed instruction
system.cpu0.op_class_0::SimdFloatCmp                0      0.00%     87.37% # Class of committed instruction
system.cpu0.op_class_0::SimdFloatCvt            34832      0.21%     87.58% # Class of committed instruction
system.cpu0.op_class_0::SimdFloatDiv               22      0.00%     87.58% # Class of committed instruction
system.cpu0.op_class_0::SimdFloatMisc               0      0.00%     87.58% # Class of committed instruction
system.cpu0.op_class_0::SimdFloatMult           49128      0.30%     87.88% # Class of committed instruction
system.cpu0.op_class_0::SimdFloatMultAcc            0      0.00%     87.88% # Class of committed instruction
system.cpu0.op_class_0::SimdFloatSqrt               0      0.00%     87.88% # Class of committed instruction
system.cpu0.op_class_0::SimdReduceAdd               0      0.00%     87.88% # Class of committed instruction
system.cpu0.op_class_0::SimdReduceAlu               0      0.00%     87.88% # Class of committed instruction
system.cpu0.op_class_0::SimdReduceCmp               0      0.00%     87.88% # Class of committed instruction
system.cpu0.op_class_0::SimdFloatReduceAdd            0      0.00%     87.88% # Class of committed instruction
system.cpu0.op_class_0::SimdFloatReduceCmp            0      0.00%     87.88% # Class of committed instruction
system.cpu0.op_class_0::SimdAes                     0      0.00%     87.88% # Class of committed instruction
system.cpu0.op_class_0::SimdAesMix                  0      0.00%     87.88% # Class of committed instruction
system.cpu0.op_class_0::SimdSha1Hash                0      0.00%     87.88% # Class of committed instruction
system.cpu0.op_class_0::SimdSha1Hash2               0      0.00%     87.88% # Class of committed instruction
system.cpu0.op_class_0::SimdSha256Hash              0      0.00%     87.88% # Class of committed instruction
system.cpu0.op_class_0::SimdSha256Hash2             0      0.00%     87.88% # Class of committed instruction
system.cpu0.op_class_0::SimdShaSigma2               0      0.00%     87.88% # Class of committed instruction
system.cpu0.op_class_0::SimdShaSigma3               0      0.00%     87.88% # Class of committed instruction
system.cpu0.op_class_0::SimdPredAlu                 0      0.00%     87.88% # Class of committed instruction
system.cpu0.op_class_0::MemRead               1263997      7.72%     95.61% # Class of committed instruction
system.cpu0.op_class_0::MemWrite               592755      3.62%     99.23% # Class of committed instruction
system.cpu0.op_class_0::FloatMemRead            80716      0.49%     99.72% # Class of committed instruction
system.cpu0.op_class_0::FloatMemWrite           45487      0.28%    100.00% # Class of committed instruction
system.cpu0.op_class_0::IprAccess                   0      0.00%    100.00% # Class of committed instruction
system.cpu0.op_class_0::InstPrefetch                0      0.00%    100.00% # Class of committed instruction
system.cpu0.op_class_0::total                16363461                       # Class of committed instruction
system.cpu0.tickCycles                       32684940                       # Number of cycles that the object actually ticked
system.cpu0.workload.numSyscalls                   37                       # Number of system calls
system.cpu1.branchPred.BTBCorrect                   0                       # Number of correct BTB predictions (this stat may not work properly.
system.cpu1.branchPred.BTBHitPct                  nan                       # BTB Hit Percentage
system.cpu1.branchPred.BTBHits                      0                       # Number of BTB hits
system.cpu1.branchPred.BTBLookups                   0                       # Number of BTB lookups
system.cpu1.branchPred.RASInCorrect                 0                       # Number of incorrect RAS predictions.
system.cpu1.branchPred.condIncorrect               35                       # Number of conditional branches incorrect
system.cpu1.branchPred.condPredicted               76                       # Number of conditional branches predicted
system.cpu1.branchPred.indirectHits                 0                       # Number of indirect target hits.
system.cpu1.branchPred.indirectLookups             24                       # Number of indirect predictor lookups.
system.cpu1.branchPred.indirectMisses              24                       # Number of indirect misses.
system.cpu1.branchPred.lookups                     76                       # Number of BP lookups
system.cpu1.branchPred.usedRAS                      0                       # Number of times the RAS was used to get a target.
system.cpu1.branchPredindirectMispredicted           15                       # Number of mispredicted indirect branches.
system.cpu1.committedInsts                    3798975                       # Number of instructions committed
system.cpu1.committedOps                      7183926                       # Number of ops (including micro ops) committed
system.cpu1.cpi                             11.931259                       # CPI: cycles per instruction
system.cpu1.discardedOps                      1342629                       # Number of ops (including micro ops) which were discarded before commit
system.cpu1.dtb.rdAccesses                     964396                       # TLB accesses on read requests
system.cpu1.dtb.rdMisses                        13692                       # TLB misses on read requests
system.cpu1.dtb.wrAccesses                     696897                       # TLB accesses on write requests
system.cpu1.dtb.wrMisses                          509                       # TLB misses on write requests
system.cpu1.fetch2.amo_instructions                 0                       # Number of memory atomic instructions successfully decoded
system.cpu1.fetch2.fp_instructions                  0                       # Number of floating point instructions successfully decoded
system.cpu1.fetch2.int_instructions                 8                       # Number of integer instructions successfully decoded
system.cpu1.fetch2.load_instructions                0                       # Number of memory load instructions successfully decoded
system.cpu1.fetch2.store_instructions               0                       # Number of memory store instructions successfully decoded
system.cpu1.fetch2.vec_instructions                 0                       # Number of SIMD instructions successfully decoded
system.cpu1.idleCycles                       32881979                       # Total number of cycles that the object has spent stopped
system.cpu1.ipc                              0.083813                       # IPC: instructions per cycle
system.cpu1.itb.rdAccesses                          0                       # TLB accesses on read requests
system.cpu1.itb.rdMisses                            0                       # TLB misses on read requests
system.cpu1.itb.wrAccesses                    1269201                       # TLB accesses on write requests
system.cpu1.itb.wrMisses                          222                       # TLB misses on write requests
system.cpu1.numCycles                        45326556                       # number of cpu cycles simulated
system.cpu1.numFetchSuspends                        0                       # Number of times Execute suspended instruction fetching
system.cpu1.numWorkItemsCompleted                   0                       # number of work items this cpu completed
system.cpu1.numWorkItemsStarted                     0                       # number of work items this cpu started
system.cpu1.op_class_0::No_OpClass              15878      0.22%      0.22% # Class of committed instruction
system.cpu1.op_class_0::IntAlu                5626828     78.33%     78.55% # Class of committed instruction
system.cpu1.op_class_0::IntMult                 13995      0.19%     78.74% # Class of committed instruction
system.cpu1.op_class_0::IntDiv                   1365      0.02%     78.76% # Class of committed instruction
system.cpu1.op_class_0::FloatAdd                 9570      0.13%     78.89% # Class of committed instruction
system.cpu1.op_class_0::FloatCmp                    0      0.00%     78.89% # Class of committed instruction
system.cpu1.op_class_0::FloatCvt                  160      0.00%     78.90% # Class of committed instruction
system.cpu1.op_class_0::FloatMult                   0      0.00%     78.90% # Class of committed instruction
system.cpu1.op_class_0::FloatMultAcc                0      0.00%     78.90% # Class of committed instruction
system.cpu1.op_class_0::FloatDiv                    0      0.00%     78.90% # Class of committed instruction
system.cpu1.op_class_0::FloatMisc                   0      0.00%     78.90% # Class of committed instruction
system.cpu1.op_class_0::FloatSqrt                   0      0.00%     78.90% # Class of committed instruction
system.cpu1.op_class_0::SimdAdd                   946      0.01%     78.91% # Class of committed instruction
system.cpu1.op_class_0::SimdAddAcc                  0      0.00%     78.91% # Class of committed instruction
system.cpu1.op_class_0::SimdAlu                  1027      0.01%     78.92% # Class of committed instruction
system.cpu1.op_class_0::SimdCmp                    12      0.00%     78.92% # Class of committed instruction
system.cpu1.op_class_0::SimdCvt                 11240      0.16%     79.08% # Class of committed instruction
system.cpu1.op_class_0::SimdMisc                43440      0.60%     79.68% # Class of committed instruction
system.cpu1.op_class_0::SimdMult                    0      0.00%     79.68% # Class of committed instruction
system.cpu1.op_class_0::SimdMultAcc                 0      0.00%     79.68% # Class of committed instruction
system.cpu1.op_class_0::SimdShift                 446      0.01%     79.69% # Class of committed instruction
system.cpu1.op_class_0::SimdShiftAcc                0      0.00%     79.69% # Class of committed instruction
system.cpu1.op_class_0::SimdDiv                     0      0.00%     79.69% # Class of committed instruction
system.cpu1.op_class_0::SimdSqrt                    0      0.00%     79.69% # Class of committed instruction
system.cpu1.op_class_0::SimdFloatAdd                0      0.00%     79.69% # Class of committed instruction
system.cpu1.op_class_0::SimdFloatAlu                0      0.00%     79.69% # Class of committed instruction
system.cpu1.op_class_0::SimdFloatCmp                0      0.00%     79.69% # Class of committed instruction
system.cpu1.op_class_0::SimdFloatCvt                0      0.00%     79.69% # Class of committed instruction
system.cpu1.op_class_0::SimdFloatDiv                0      0.00%     79.69% # Class of committed instruction
system.cpu1.op_class_0::SimdFloatMisc               0      0.00%     79.69% # Class of committed instruction
system.cpu1.op_class_0::SimdFloatMult               0      0.00%     79.69% # Class of committed instruction
system.cpu1.op_class_0::SimdFloatMultAcc            0      0.00%     79.69% # Class of committed instruction
system.cpu1.op_class_0::SimdFloatSqrt               0      0.00%     79.69% # Class of committed instruction
system.cpu1.op_class_0::SimdReduceAdd               0      0.00%     79.69% # Class of committed instruction
system.cpu1.op_class_0::SimdReduceAlu               0      0.00%     79.69% # Class of committed instruction
system.cpu1.op_class_0::SimdReduceCmp               0      0.00%     79.69% # Class of committed instruction
system.cpu1.op_class_0::SimdFloatReduceAdd            0      0.00%     79.69% # Class of committed instruction
system.cpu1.op_class_0::SimdFloatReduceCmp            0      0.00%     79.69% # Class of committed instruction
system.cpu1.op_class_0::SimdAes                     0      0.00%     79.69% # Class of committed instruction
system.cpu1.op_class_0::SimdAesMix                  0      0.00%     79.69% # Class of committed instruction
system.cpu1.op_class_0::SimdSha1Hash                0      0.00%     79.69% # Class of committed instruction
system.cpu1.op_class_0::SimdSha1Hash2               0      0.00%     79.69% # Class of committed instruction
system.cpu1.op_class_0::SimdSha256Hash              0      0.00%     79.69% # Class of committed instruction
system.cpu1.op_class_0::SimdSha256Hash2             0      0.00%     79.69% # Class of committed instruction
system.cpu1.op_class_0::SimdShaSigma2               0      0.00%     79.69% # Class of committed instruction
system.cpu1.op_class_0::SimdShaSigma3               0      0.00%     79.69% # Class of committed instruction
system.cpu1.op_class_0::SimdPredAlu                 0      0.00%     79.69% # Class of committed instruction
system.cpu1.op_class_0::MemRead                787590     10.96%     90.65% # Class of committed instruction
system.cpu1.op_class_0::MemWrite               630313      8.77%     99.43% # Class of committed instruction
system.cpu1.op_class_0::FloatMemRead            25794      0.36%     99.79% # Class of committed instruction
system.cpu1.op_class_0::FloatMemWrite           15322      0.21%    100.00% # Class of committed instruction
system.cpu1.op_class_0::IprAccess                   0      0.00%    100.00% # Class of committed instruction
system.cpu1.op_class_0::InstPrefetch                0      0.00%    100.00% # Class of committed instruction
system.cpu1.op_class_0::total                 7183926                       # Class of committed instruction
system.cpu1.tickCycles                       12444577                       # Number of cycles that the object actually ticked
system.cpu1.workload.numSyscalls                   35                       # Number of system calls
system.membus.snoop_filter.hit_multi_requests            0                       # Number of requests hitting in the snoop filter with multiple (>1) holders of the requested data.
system.membus.snoop_filter.hit_multi_snoops            0                       # Number of snoops hitting in the snoop filter with multiple (>1) holders of the requested data.
system.membus.snoop_filter.hit_single_requests       248959                       # Number of requests hitting in the snoop filter with a single holder of the requested data.
system.membus.snoop_filter.hit_single_snoops            0                       # Number of snoops hitting in the snoop filter with a single holder of the requested data.
system.membus.snoop_filter.tot_requests        498942                       # Total number of requests made to the snoop filter.
system.membus.snoop_filter.tot_snoops               0                       # Total number of snoops made to the snoop filter.
system.tol2bus.snoop_filter.hit_multi_requests            0                       # Number of requests hitting in the snoop filter with multiple (>1) holders of the requested data.
system.tol2bus.snoop_filter.hit_multi_snoops            0                       # Number of snoops hitting in the snoop filter with multiple (>1) holders of the requested data.
system.tol2bus.snoop_filter.hit_single_requests      1213838                       # Number of requests hitting in the snoop filter with a single holder of the requested data.
system.tol2bus.snoop_filter.hit_single_snoops         1443                       # Number of snoops hitting in the snoop filter with a single holder of the requested data.
system.tol2bus.snoop_filter.tot_requests      2427741                       # Total number of requests made to the snoop filter.
system.tol2bus.snoop_filter.tot_snoops           1443                       # Total number of snoops made to the snoop filter.
system.membus.trans_dist::ReadResp             224821                       # Transaction distribution
system.membus.trans_dist::WritebackDirty        48555                       # Transaction distribution
system.membus.trans_dist::CleanEvict           200404                       # Transaction distribution
system.membus.trans_dist::ReadExReq             25162                       # Transaction distribution
system.membus.trans_dist::ReadExResp            25162                       # Transaction distribution
system.membus.trans_dist::ReadSharedReq        224821                       # Transaction distribution
system.membus.pkt_count_system.l2.mem_side::system.mem_ctrls.port       748925                       # Packet count per connected master and slave (bytes)
system.membus.pkt_count_system.l2.mem_side::total       748925                       # Packet count per connected master and slave (bytes)
system.membus.pkt_count::total                 748925                       # Packet count per connected master and slave (bytes)
system.membus.pkt_size_system.l2.mem_side::system.mem_ctrls.port     19106432                       # Cumulative packet size per connected master and slave (bytes)
system.membus.pkt_size_system.l2.mem_side::total     19106432                       # Cumulative packet size per connected master and slave (bytes)
system.membus.pkt_size::total                19106432                       # Cumulative packet size per connected master and slave (bytes)
system.membus.snoops                                0                       # Total snoops (count)
system.membus.snoopTraffic                          0                       # Total snoop traffic (bytes)
system.membus.snoop_fanout::samples            249983                       # Request fanout histogram
system.membus.snoop_fanout::mean                    0                       # Request fanout histogram
system.membus.snoop_fanout::stdev                   0                       # Request fanout histogram
system.membus.snoop_fanout::underflows              0      0.00%      0.00% # Request fanout histogram
system.membus.snoop_fanout::0                  249983    100.00%    100.00% # Request fanout histogram
system.membus.snoop_fanout::1                       0      0.00%    100.00% # Request fanout histogram
system.membus.snoop_fanout::overflows               0      0.00%    100.00% # Request fanout histogram
system.membus.snoop_fanout::min_value               0                       # Request fanout histogram
system.membus.snoop_fanout::max_value               0                       # Request fanout histogram
system.membus.snoop_fanout::total              249983                       # Request fanout histogram
system.membus.reqLayer4.occupancy           742186500                       # Layer occupancy (ticks)
system.membus.reqLayer4.utilization               3.3                       # Layer utilization (%)
system.membus.respLayer1.occupancy         1333276000                       # Layer occupancy (ticks)
system.membus.respLayer1.utilization              5.9                       # Layer utilization (%)
system.membus.power_state.pwrStateResidencyTicks::UNDEFINED  22663282000                       # Cumulative time (in ticks) in various power states
system.voltage_domain.voltage                       1                       # Voltage in Volts
system.clk_domain.clock                          1000                       # Clock period in ticks
system.cpu0.icache.demand_hits::.cpu0.inst      4693160                       # number of demand (read+write) hits
system.cpu0.icache.demand_hits::total         4693160                       # number of demand (read+write) hits
system.cpu0.icache.overall_hits::.cpu0.inst      4693160                       # number of overall hits
system.cpu0.icache.overall_hits::total        4693160                       # number of overall hits
system.cpu0.icache.demand_misses::.cpu0.inst        70906                       # number of demand (read+write) misses
system.cpu0.icache.demand_misses::total         70906                       # number of demand (read+write) misses
system.cpu0.icache.overall_misses::.cpu0.inst        70906                       # number of overall misses
system.cpu0.icache.overall_misses::total        70906                       # number of overall misses
system.cpu0.icache.demand_miss_latency::.cpu0.inst   1251306000                       # number of demand (read+write) miss cycles
system.cpu0.icache.demand_miss_latency::total   1251306000                       # number of demand (read+write) miss cycles
system.cpu0.icache.overall_miss_latency::.cpu0.inst   1251306000                       # number of overall miss cycles
system.cpu0.icache.overall_miss_latency::total   1251306000                       # number of overall miss cycles
system.cpu0.icache.demand_accesses::.cpu0.inst      4764066                       # number of demand (read+write) accesses
system.cpu0.icache.demand_accesses::total      4764066                       # number of demand (read+write) accesses
system.cpu0.icache.overall_accesses::.cpu0.inst      4764066                       # number of overall (read+write) accesses
system.cpu0.icache.overall_accesses::total      4764066                       # number of overall (read+write) accesses
system.cpu0.icache.demand_miss_rate::.cpu0.inst     0.014884                       # miss rate for demand accesses
system.cpu0.icache.demand_miss_rate::total     0.014884                       # miss rate for demand accesses
system.cpu0.icache.overall_miss_rate::.cpu0.inst     0.014884                       # miss rate for overall accesses
system.cpu0.icache.overall_miss_rate::total     0.014884                       # miss rate for overall accesses
system.cpu0.icache.demand_avg_miss_latency::.cpu0.inst 17647.392322                       # average overall miss latency
system.cpu0.icache.demand_avg_miss_latency::total 17647.392322                       # average overall miss latency
system.cpu0.icache.overall_avg_miss_latency::.cpu0.inst 17647.392322                       # average overall miss latency
system.cpu0.icache.overall_avg_miss_latency::total 17647.392322                       # average overall miss latency
system.cpu0.icache.blocked_cycles::no_mshrs            0                       # number of cycles access was blocked
system.cpu0.icache.blocked_cycles::no_targets            0                       # number of cycles access was blocked
system.cpu0.icache.blocked::no_mshrs                0                       # number of cycles access was blocked
system.cpu0.icache.blocked::no_targets              0                       # number of cycles access was blocked
system.cpu0.icache.avg_blocked_cycles::no_mshrs          nan                       # average number of cycles each access was blocked
system.cpu0.icache.avg_blocked_cycles::no_targets          nan                       # average number of cycles each access was blocked
system.cpu0.icache.writebacks::.writebacks        70890                       # number of writebacks
system.cpu0.icache.writebacks::total            70890                       # number of writebacks
system.cpu0.icache.demand_mshr_misses::.cpu0.inst        70906                       # number of demand (read+write) MSHR misses
system.cpu0.icache.demand_mshr_misses::total        70906                       # number of demand (read+write) MSHR misses
system.cpu0.icache.overall_mshr_misses::.cpu0.inst        70906                       # number of overall MSHR misses
system.cpu0.icache.overall_mshr_misses::total        70906                       # number of overall MSHR misses
system.cpu0.icache.demand_mshr_miss_latency::.cpu0.inst   1180400000                       # number of demand (read+write) MSHR miss cycles
system.cpu0.icache.demand_mshr_miss_latency::total   1180400000                       # number of demand (read+write) MSHR miss cycles
system.cpu0.icache.overall_mshr_miss_latency::.cpu0.inst   1180400000                       # number of overall MSHR miss cycles
system.cpu0.icache.overall_mshr_miss_latency::total   1180400000                       # number of overall MSHR miss cycles
system.cpu0.icache.demand_mshr_miss_rate::.cpu0.inst     0.014884                       # mshr miss rate for demand accesses
system.cpu0.icache.demand_mshr_miss_rate::total     0.014884                       # mshr miss rate for demand accesses
system.cpu0.icache.overall_mshr_miss_rate::.cpu0.inst     0.014884                       # mshr miss rate for overall accesses
system.cpu0.icache.overall_mshr_miss_rate::total     0.014884                       # mshr miss rate for overall accesses
system.cpu0.icache.demand_avg_mshr_miss_latency::.cpu0.inst 16647.392322                       # average overall mshr miss latency
system.cpu0.icache.demand_avg_mshr_miss_latency::total 16647.392322                       # average overall mshr miss latency
system.cpu0.icache.overall_avg_mshr_miss_latency::.cpu0.inst 16647.392322                       # average overall mshr miss latency
system.cpu0.icache.overall_avg_mshr_miss_latency::total 16647.392322                       # average overall mshr miss latency
system.cpu0.icache.replacements                 70890                       # number of replacements
system.cpu0.icache.ReadReq_hits::.cpu0.inst      4693160                       # number of ReadReq hits
system.cpu0.icache.ReadReq_hits::total        4693160                       # number of ReadReq hits
system.cpu0.icache.ReadReq_misses::.cpu0.inst        70906                       # number of ReadReq misses
system.cpu0.icache.ReadReq_misses::total        70906                       # number of ReadReq misses
system.cpu0.icache.ReadReq_miss_latency::.cpu0.inst   1251306000                       # number of ReadReq miss cycles
system.cpu0.icache.ReadReq_miss_latency::total   1251306000                       # number of ReadReq miss cycles
system.cpu0.icache.ReadReq_accesses::.cpu0.inst      4764066                       # number of ReadReq accesses(hits+misses)
system.cpu0.icache.ReadReq_accesses::total      4764066                       # number of ReadReq accesses(hits+misses)
system.cpu0.icache.ReadReq_miss_rate::.cpu0.inst     0.014884                       # miss rate for ReadReq accesses
system.cpu0.icache.ReadReq_miss_rate::total     0.014884                       # miss rate for ReadReq accesses
system.cpu0.icache.ReadReq_avg_miss_latency::.cpu0.inst 17647.392322                       # average ReadReq miss latency
system.cpu0.icache.ReadReq_avg_miss_latency::total 17647.392322                       # average ReadReq miss latency
system.cpu0.icache.ReadReq_mshr_misses::.cpu0.inst        70906                       # number of ReadReq MSHR misses
system.cpu0.icache.ReadReq_mshr_misses::total        70906                       # number of ReadReq MSHR misses
system.cpu0.icache.ReadReq_mshr_miss_latency::.cpu0.inst   1180400000                       # number of ReadReq MSHR miss cycles
system.cpu0.icache.ReadReq_mshr_miss_latency::total   1180400000                       # number of ReadReq MSHR miss cycles
system.cpu0.icache.ReadReq_mshr_miss_rate::.cpu0.inst     0.014884                       # mshr miss rate for ReadReq accesses
system.cpu0.icache.ReadReq_mshr_miss_rate::total     0.014884                       # mshr miss rate for ReadReq accesses
system.cpu0.icache.ReadReq_avg_mshr_miss_latency::.cpu0.inst 16647.392322                       # average ReadReq mshr miss latency
system.cpu0.icache.ReadReq_avg_mshr_miss_latency::total 16647.392322                       # average ReadReq mshr miss latency
system.cpu0.icache.power_state.pwrStateResidencyTicks::UNDEFINED  22663282000                       # Cumulative time (in ticks) in various power states
system.cpu0.icache.tags.tagsinuse           15.999397                       # Cycle average of tags in use
system.cpu0.icache.tags.total_refs            4764066                       # Total number of references to valid blocks.
system.cpu0.icache.tags.sampled_refs            70906                       # Sample count of references to valid blocks.
system.cpu0.icache.tags.avg_refs            67.188475                       # Average number of references to valid blocks.
system.cpu0.icache.tags.warmup_cycle            87500                       # Cycle when the warmup percentage was hit.
system.cpu0.icache.tags.occ_blocks::.cpu0.inst    15.999397                       # Average occupied blocks per requestor
system.cpu0.icache.tags.occ_percent::.cpu0.inst     0.999962                       # Average percentage of cache occupancy
system.cpu0.icache.tags.occ_percent::total     0.999962                       # Average percentage of cache occupancy
system.cpu0.icache.tags.occ_task_id_blocks::1024           16                       # Occupied blocks per task id
system.cpu0.icache.tags.age_task_id_blocks_1024::1           16                       # Occupied blocks per task id
system.cpu0.icache.tags.occ_task_id_percent::1024            1                       # Percentage of cache occupancy per task id
system.cpu0.icache.tags.tag_accesses         38183434                       # Number of tag accesses
system.cpu0.icache.tags.data_accesses        38183434                       # Number of data accesses
system.cpu0.icache.tags.power_state.pwrStateResidencyTicks::UNDEFINED  22663282000                       # Cumulative time (in ticks) in various power states
system.cpu0.dtb.walker.power_state.pwrStateResidencyTicks::UNDEFINED  22663282000                       # Cumulative time (in ticks) in various power states
system.cpu0.interrupts.clk_domain.clock          8000                       # Clock period in ticks
system.cpu0.itb_walker_cache.blocked_cycles::no_mshrs            0                       # number of cycles access was blocked
system.cpu0.itb_walker_cache.blocked_cycles::no_targets            0                       # number of cycles access was blocked
system.cpu0.itb_walker_cache.blocked::no_mshrs            0                       # number of cycles access was blocked
system.cpu0.itb_walker_cache.blocked::no_targets            0                       # number of cycles access was blocked
system.cpu0.itb_walker_cache.avg_blocked_cycles::no_mshrs          nan                       # average number of cycles each access was blocked
system.cpu0.itb_walker_cache.avg_blocked_cycles::no_targets          nan                       # average number of cycles each access was blocked
system.cpu0.itb_walker_cache.replacements            0                       # number of replacements
system.cpu0.itb_walker_cache.power_state.pwrStateResidencyTicks::UNDEFINED  22663282000                       # Cumulative time (in ticks) in various power states
system.cpu0.itb_walker_cache.tags.tagsinuse            0                       # Cycle average of tags in use
system.cpu0.itb_walker_cache.tags.total_refs            0                       # Total number of references to valid blocks.
system.cpu0.itb_walker_cache.tags.sampled_refs            0                       # Sample count of references to valid blocks.
system.cpu0.itb_walker_cache.tags.avg_refs          nan                       # Average number of references to valid blocks.
system.cpu0.itb_walker_cache.tags.warmup_cycle            0                       # Cycle when the warmup percentage was hit.
system.cpu0.itb_walker_cache.tags.tag_accesses            0                       # Number of tag accesses
system.cpu0.itb_walker_cache.tags.data_accesses            0                       # Number of data accesses
system.cpu0.itb_walker_cache.tags.power_state.pwrStateResidencyTicks::UNDEFINED  22663282000                       # Cumulative time (in ticks) in various power states
system.cpu0.dtb_walker_cache.blocked_cycles::no_mshrs            0                       # number of cycles access was blocked
system.cpu0.dtb_walker_cache.blocked_cycles::no_targets            0                       # number of cycles access was blocked
system.cpu0.dtb_walker_cache.blocked::no_mshrs            0                       # number of cycles access was blocked
system.cpu0.dtb_walker_cache.blocked::no_targets            0                       # number of cycles access was blocked
system.cpu0.dtb_walker_cache.avg_blocked_cycles::no_mshrs          nan                       # average number of cycles each access was blocked
system.cpu0.dtb_walker_cache.avg_blocked_cycles::no_targets          nan                       # average number of cycles each access was blocked
system.cpu0.dtb_walker_cache.replacements            0                       # number of replacements
system.cpu0.dtb_walker_cache.power_state.pwrStateResidencyTicks::UNDEFINED  22663282000                       # Cumulative time (in ticks) in various power states
system.cpu0.dtb_walker_cache.tags.tagsinuse            0                       # Cycle average of tags in use
system.cpu0.dtb_walker_cache.tags.total_refs            0                       # Total number of references to valid blocks.
system.cpu0.dtb_walker_cache.tags.sampled_refs            0                       # Sample count of references to valid blocks.
system.cpu0.dtb_walker_cache.tags.avg_refs          nan                       # Average number of references to valid blocks.
system.cpu0.dtb_walker_cache.tags.warmup_cycle            0                       # Cycle when the warmup percentage was hit.
system.cpu0.dtb_walker_cache.tags.tag_accesses            0                       # Number of tag accesses
system.cpu0.dtb_walker_cache.tags.data_accesses            0                       # Number of data accesses
system.cpu0.dtb_walker_cache.tags.power_state.pwrStateResidencyTicks::UNDEFINED  22663282000                       # Cumulative time (in ticks) in various power states
system.cpu0.dcache.demand_hits::.cpu0.data      1809667                       # number of demand (read+write) hits
system.cpu0.dcache.demand_hits::total         1809667                       # number of demand (read+write) hits
system.cpu0.dcache.overall_hits::.cpu0.data      1809724                       # number of overall hits
system.cpu0.dcache.overall_hits::total        1809724                       # number of overall hits
system.cpu0.dcache.demand_misses::.cpu0.data       290866                       # number of demand (read+write) misses
system.cpu0.dcache.demand_misses::total        290866                       # number of demand (read+write) misses
system.cpu0.dcache.overall_misses::.cpu0.data       290923                       # number of overall misses
system.cpu0.dcache.overall_misses::total       290923                       # number of overall misses
system.cpu0.dcache.demand_miss_latency::.cpu0.data   7388019500                       # number of demand (read+write) miss cycles
system.cpu0.dcache.demand_miss_latency::total   7388019500                       # number of demand (read+write) miss cycles
system.cpu0.dcache.overall_miss_latency::.cpu0.data   7388019500                       # number of overall miss cycles
system.cpu0.dcache.overall_miss_latency::total   7388019500                       # number of overall miss cycles
system.cpu0.dcache.demand_accesses::.cpu0.data      2100533                       # number of demand (read+write) accesses
system.cpu0.dcache.demand_accesses::total      2100533                       # number of demand (read+write) accesses
system.cpu0.dcache.overall_accesses::.cpu0.data      2100647                       # number of overall (read+write) accesses
system.cpu0.dcache.overall_accesses::total      2100647                       # number of overall (read+write) accesses
system.cpu0.dcache.demand_miss_rate::.cpu0.data     0.138472                       # miss rate for demand accesses
system.cpu0.dcache.demand_miss_rate::total     0.138472                       # miss rate for demand accesses
system.cpu0.dcache.overall_miss_rate::.cpu0.data     0.138492                       # miss rate for overall accesses
system.cpu0.dcache.overall_miss_rate::total     0.138492                       # miss rate for overall accesses
system.cpu0.dcache.demand_avg_miss_latency::.cpu0.data 25400.079418                       # average overall miss latency
system.cpu0.dcache.demand_avg_miss_latency::total 25400.079418                       # average overall miss latency
system.cpu0.dcache.overall_avg_miss_latency::.cpu0.data 25395.102828                       # average overall miss latency
system.cpu0.dcache.overall_avg_miss_latency::total 25395.102828                       # average overall miss latency
system.cpu0.dcache.blocked_cycles::no_mshrs            0                       # number of cycles access was blocked
system.cpu0.dcache.blocked_cycles::no_targets            0                       # number of cycles access was blocked
system.cpu0.dcache.blocked::no_mshrs                0                       # number of cycles access was blocked
system.cpu0.dcache.blocked::no_targets              0                       # number of cycles access was blocked
system.cpu0.dcache.avg_blocked_cycles::no_mshrs          nan                       # average number of cycles each access was blocked
system.cpu0.dcache.avg_blocked_cycles::no_targets          nan                       # average number of cycles each access was blocked
system.cpu0.dcache.writebacks::.writebacks       241564                       # number of writebacks
system.cpu0.dcache.writebacks::total           241564                       # number of writebacks
system.cpu0.dcache.demand_mshr_hits::.cpu0.data        10553                       # number of demand (read+write) MSHR hits
system.cpu0.dcache.demand_mshr_hits::total        10553                       # number of demand (read+write) MSHR hits
system.cpu0.dcache.overall_mshr_hits::.cpu0.data        10553                       # number of overall MSHR hits
system.cpu0.dcache.overall_mshr_hits::total        10553                       # number of overall MSHR hits
system.cpu0.dcache.demand_mshr_misses::.cpu0.data       280313                       # number of demand (read+write) MSHR misses
system.cpu0.dcache.demand_mshr_misses::total       280313                       # number of demand (read+write) MSHR misses
system.cpu0.dcache.overall_mshr_misses::.cpu0.data       280370                       # number of overall MSHR misses
system.cpu0.dcache.overall_mshr_misses::total       280370                       # number of overall MSHR misses
system.cpu0.dcache.demand_mshr_miss_latency::.cpu0.data   6689582500                       # number of demand (read+write) MSHR miss cycles
system.cpu0.dcache.demand_mshr_miss_latency::total   6689582500                       # number of demand (read+write) MSHR miss cycles
system.cpu0.dcache.overall_mshr_miss_latency::.cpu0.data   6690343500                       # number of overall MSHR miss cycles
system.cpu0.dcache.overall_mshr_miss_latency::total   6690343500                       # number of overall MSHR miss cycles
system.cpu0.dcache.demand_mshr_miss_rate::.cpu0.data     0.133449                       # mshr miss rate for demand accesses
system.cpu0.dcache.demand_mshr_miss_rate::total     0.133449                       # mshr miss rate for demand accesses
system.cpu0.dcache.overall_mshr_miss_rate::.cpu0.data     0.133468                       # mshr miss rate for overall accesses
system.cpu0.dcache.overall_mshr_miss_rate::total     0.133468                       # mshr miss rate for overall accesses
system.cpu0.dcache.demand_avg_mshr_miss_latency::.cpu0.data 23864.688759                       # average overall mshr miss latency
system.cpu0.dcache.demand_avg_mshr_miss_latency::total 23864.688759                       # average overall mshr miss latency
system.cpu0.dcache.overall_avg_mshr_miss_latency::.cpu0.data 23862.551272                       # average overall mshr miss latency
system.cpu0.dcache.overall_avg_mshr_miss_latency::total 23862.551272                       # average overall mshr miss latency
system.cpu0.dcache.replacements                280354                       # number of replacements
system.cpu0.dcache.ReadReq_hits::.cpu0.data      1192429                       # number of ReadReq hits
system.cpu0.dcache.ReadReq_hits::total        1192429                       # number of ReadReq hits
system.cpu0.dcache.ReadReq_misses::.cpu0.data       269892                       # number of ReadReq misses
system.cpu0.dcache.ReadReq_misses::total       269892                       # number of ReadReq misses
system.cpu0.dcache.ReadReq_miss_latency::.cpu0.data   6496142500                       # number of ReadReq miss cycles
system.cpu0.dcache.ReadReq_miss_latency::total   6496142500                       # number of ReadReq miss cycles
system.cpu0.dcache.ReadReq_accesses::.cpu0.data      1462321                       # number of ReadReq accesses(hits+misses)
system.cpu0.dcache.ReadReq_accesses::total      1462321                       # number of ReadReq accesses(hits+misses)
system.cpu0.dcache.ReadReq_miss_rate::.cpu0.data     0.184564                       # miss rate for ReadReq accesses
system.cpu0.dcache.ReadReq_miss_rate::total     0.184564                       # miss rate for ReadReq accesses
system.cpu0.dcache.ReadReq_avg_miss_latency::.cpu0.data 24069.414803                       # average ReadReq miss latency
system.cpu0.dcache.ReadReq_avg_miss_latency::total 24069.414803                       # average ReadReq miss latency
system.cpu0.dcache.ReadReq_mshr_hits::.cpu0.data         1465                       # number of ReadReq MSHR hits
system.cpu0.dcache.ReadReq_mshr_hits::total         1465                       # number of ReadReq MSHR hits
system.cpu0.dcache.ReadReq_mshr_misses::.cpu0.data       268427                       # number of ReadReq MSHR misses
system.cpu0.dcache.ReadReq_mshr_misses::total       268427                       # number of ReadReq MSHR misses
system.cpu0.dcache.ReadReq_mshr_miss_latency::.cpu0.data   6172695500                       # number of ReadReq MSHR miss cycles
system.cpu0.dcache.ReadReq_mshr_miss_latency::total   6172695500                       # number of ReadReq MSHR miss cycles
system.cpu0.dcache.ReadReq_mshr_miss_rate::.cpu0.data     0.183562                       # mshr miss rate for ReadReq accesses
system.cpu0.dcache.ReadReq_mshr_miss_rate::total     0.183562                       # mshr miss rate for ReadReq accesses
system.cpu0.dcache.ReadReq_avg_mshr_miss_latency::.cpu0.data 22995.807054                       # average ReadReq mshr miss latency
system.cpu0.dcache.ReadReq_avg_mshr_miss_latency::total 22995.807054                       # average ReadReq mshr miss latency
system.cpu0.dcache.WriteReq_hits::.cpu0.data       617238                       # number of WriteReq hits
system.cpu0.dcache.WriteReq_hits::total        617238                       # number of WriteReq hits
system.cpu0.dcache.WriteReq_misses::.cpu0.data        20974                       # number of WriteReq misses
system.cpu0.dcache.WriteReq_misses::total        20974                       # number of WriteReq misses
system.cpu0.dcache.WriteReq_miss_latency::.cpu0.data    891877000                       # number of WriteReq miss cycles
system.cpu0.dcache.WriteReq_miss_latency::total    891877000                       # number of WriteReq miss cycles
system.cpu0.dcache.WriteReq_accesses::.cpu0.data       638212                       # number of WriteReq accesses(hits+misses)
system.cpu0.dcache.WriteReq_accesses::total       638212                       # number of WriteReq accesses(hits+misses)
system.cpu0.dcache.WriteReq_miss_rate::.cpu0.data     0.032864                       # miss rate for WriteReq accesses
system.cpu0.dcache.WriteReq_miss_rate::total     0.032864                       # miss rate for WriteReq accesses
system.cpu0.dcache.WriteReq_avg_miss_latency::.cpu0.data 42522.980833                       # average WriteReq miss latency
system.cpu0.dcache.WriteReq_avg_miss_latency::total 42522.980833                       # average WriteReq miss latency
system.cpu0.dcache.WriteReq_mshr_hits::.cpu0.data         9088                       # number of WriteReq MSHR hits
system.cpu0.dcache.WriteReq_mshr_hits::total         9088                       # number of WriteReq MSHR hits
system.cpu0.dcache.WriteReq_mshr_misses::.cpu0.data        11886                       # number of WriteReq MSHR misses
system.cpu0.dcache.WriteReq_mshr_misses::total        11886                       # number of WriteReq MSHR misses
system.cpu0.dcache.WriteReq_mshr_miss_latency::.cpu0.data    516887000                       # number of WriteReq MSHR miss cycles
system.cpu0.dcache.WriteReq_mshr_miss_latency::total    516887000                       # number of WriteReq MSHR miss cycles
system.cpu0.dcache.WriteReq_mshr_miss_rate::.cpu0.data     0.018624                       # mshr miss rate for WriteReq accesses
system.cpu0.dcache.WriteReq_mshr_miss_rate::total     0.018624                       # mshr miss rate for WriteReq accesses
system.cpu0.dcache.WriteReq_avg_mshr_miss_latency::.cpu0.data 43487.043581                       # average WriteReq mshr miss latency
system.cpu0.dcache.WriteReq_avg_mshr_miss_latency::total 43487.043581                       # average WriteReq mshr miss latency
system.cpu0.dcache.SoftPFReq_hits::.cpu0.data           57                       # number of SoftPFReq hits
system.cpu0.dcache.SoftPFReq_hits::total           57                       # number of SoftPFReq hits
system.cpu0.dcache.SoftPFReq_misses::.cpu0.data           57                       # number of SoftPFReq misses
system.cpu0.dcache.SoftPFReq_misses::total           57                       # number of SoftPFReq misses
system.cpu0.dcache.SoftPFReq_accesses::.cpu0.data          114                       # number of SoftPFReq accesses(hits+misses)
system.cpu0.dcache.SoftPFReq_accesses::total          114                       # number of SoftPFReq accesses(hits+misses)
system.cpu0.dcache.SoftPFReq_miss_rate::.cpu0.data     0.500000                       # miss rate for SoftPFReq accesses
system.cpu0.dcache.SoftPFReq_miss_rate::total     0.500000                       # miss rate for SoftPFReq accesses
system.cpu0.dcache.SoftPFReq_mshr_misses::.cpu0.data           57                       # number of SoftPFReq MSHR misses
system.cpu0.dcache.SoftPFReq_mshr_misses::total           57                       # number of SoftPFReq MSHR misses
system.cpu0.dcache.SoftPFReq_mshr_miss_latency::.cpu0.data       761000                       # number of SoftPFReq MSHR miss cycles
system.cpu0.dcache.SoftPFReq_mshr_miss_latency::total       761000                       # number of SoftPFReq MSHR miss cycles
system.cpu0.dcache.SoftPFReq_mshr_miss_rate::.cpu0.data     0.500000                       # mshr miss rate for SoftPFReq accesses
system.cpu0.dcache.SoftPFReq_mshr_miss_rate::total     0.500000                       # mshr miss rate for SoftPFReq accesses
system.cpu0.dcache.SoftPFReq_avg_mshr_miss_latency::.cpu0.data 13350.877193                       # average SoftPFReq mshr miss latency
system.cpu0.dcache.SoftPFReq_avg_mshr_miss_latency::total 13350.877193                       # average SoftPFReq mshr miss latency
system.cpu0.dcache.power_state.pwrStateResidencyTicks::UNDEFINED  22663282000                       # Cumulative time (in ticks) in various power states
system.cpu0.dcache.tags.tagsinuse           15.999434                       # Cycle average of tags in use
system.cpu0.dcache.tags.total_refs            2090094                       # Total number of references to valid blocks.
system.cpu0.dcache.tags.sampled_refs           280370                       # Sample count of references to valid blocks.
system.cpu0.dcache.tags.avg_refs             7.454770                       # Average number of references to valid blocks.
system.cpu0.dcache.tags.warmup_cycle           178500                       # Cycle when the warmup percentage was hit.
system.cpu0.dcache.tags.occ_blocks::.cpu0.data    15.999434                       # Average occupied blocks per requestor
system.cpu0.dcache.tags.occ_percent::.cpu0.data     0.999965                       # Average percentage of cache occupancy
system.cpu0.dcache.tags.occ_percent::total     0.999965                       # Average percentage of cache occupancy
system.cpu0.dcache.tags.occ_task_id_blocks::1024           16                       # Occupied blocks per task id
system.cpu0.dcache.tags.age_task_id_blocks_1024::0           16                       # Occupied blocks per task id
system.cpu0.dcache.tags.occ_task_id_percent::1024            1                       # Percentage of cache occupancy per task id
system.cpu0.dcache.tags.tag_accesses         17085546                       # Number of tag accesses
system.cpu0.dcache.tags.data_accesses        17085546                       # Number of data accesses
system.cpu0.dcache.tags.power_state.pwrStateResidencyTicks::UNDEFINED  22663282000                       # Cumulative time (in ticks) in various power states
system.cpu0.power_state.pwrStateResidencyTicks::ON  22663282000                       # Cumulative time (in ticks) in various power states
system.cpu0.itb.walker.power_state.pwrStateResidencyTicks::UNDEFINED  22663282000                       # Cumulative time (in ticks) in various power states
system.cpu1.icache.demand_hits::.cpu1.inst       653842                       # number of demand (read+write) hits
system.cpu1.icache.demand_hits::total          653842                       # number of demand (read+write) hits
system.cpu1.icache.overall_hits::.cpu1.inst       653842                       # number of overall hits
system.cpu1.icache.overall_hits::total         653842                       # number of overall hits
system.cpu1.icache.demand_misses::.cpu1.inst       615306                       # number of demand (read+write) misses
system.cpu1.icache.demand_misses::total        615306                       # number of demand (read+write) misses
system.cpu1.icache.overall_misses::.cpu1.inst       615306                       # number of overall misses
system.cpu1.icache.overall_misses::total       615306                       # number of overall misses
system.cpu1.icache.demand_miss_latency::.cpu1.inst  17822005000                       # number of demand (read+write) miss cycles
system.cpu1.icache.demand_miss_latency::total  17822005000                       # number of demand (read+write) miss cycles
system.cpu1.icache.overall_miss_latency::.cpu1.inst  17822005000                       # number of overall miss cycles
system.cpu1.icache.overall_miss_latency::total  17822005000                       # number of overall miss cycles
system.cpu1.icache.demand_accesses::.cpu1.inst      1269148                       # number of demand (read+write) accesses
system.cpu1.icache.demand_accesses::total      1269148                       # number of demand (read+write) accesses
system.cpu1.icache.overall_accesses::.cpu1.inst      1269148                       # number of overall (read+write) accesses
system.cpu1.icache.overall_accesses::total      1269148                       # number of overall (read+write) accesses
system.cpu1.icache.demand_miss_rate::.cpu1.inst     0.484818                       # miss rate for demand accesses
system.cpu1.icache.demand_miss_rate::total     0.484818                       # miss rate for demand accesses
system.cpu1.icache.overall_miss_rate::.cpu1.inst     0.484818                       # miss rate for overall accesses
system.cpu1.icache.overall_miss_rate::total     0.484818                       # miss rate for overall accesses
system.cpu1.icache.demand_avg_miss_latency::.cpu1.inst 28964.458335                       # average overall miss latency
system.cpu1.icache.demand_avg_miss_latency::total 28964.458335                       # average overall miss latency
system.cpu1.icache.overall_avg_miss_latency::.cpu1.inst 28964.458335                       # average overall miss latency
system.cpu1.icache.overall_avg_miss_latency::total 28964.458335                       # average overall miss latency
system.cpu1.icache.blocked_cycles::no_mshrs            0                       # number of cycles access was blocked
system.cpu1.icache.blocked_cycles::no_targets            0                       # number of cycles access was blocked
system.cpu1.icache.blocked::no_mshrs                0                       # number of cycles access was blocked
system.cpu1.icache.blocked::no_targets              0                       # number of cycles access was blocked
system.cpu1.icache.avg_blocked_cycles::no_mshrs          nan                       # average number of cycles each access was blocked
system.cpu1.icache.avg_blocked_cycles::no_targets          nan                       # average number of cycles each access was blocked
system.cpu1.icache.writebacks::.writebacks       615289                       # number of writebacks
system.cpu1.icache.writebacks::total           615289                       # number of writebacks
system.cpu1.icache.demand_mshr_misses::.cpu1.inst       615306                       # number of demand (read+write) MSHR misses
system.cpu1.icache.demand_mshr_misses::total       615306                       # number of demand (read+write) MSHR misses
system.cpu1.icache.overall_mshr_misses::.cpu1.inst       615306                       # number of overall MSHR misses
system.cpu1.icache.overall_mshr_misses::total       615306                       # number of overall MSHR misses
system.cpu1.icache.demand_mshr_miss_latency::.cpu1.inst  17206700000                       # number of demand (read+write) MSHR miss cycles
system.cpu1.icache.demand_mshr_miss_latency::total  17206700000                       # number of demand (read+write) MSHR miss cycles
system.cpu1.icache.overall_mshr_miss_latency::.cpu1.inst  17206700000                       # number of overall MSHR miss cycles
system.cpu1.icache.overall_mshr_miss_latency::total  17206700000                       # number of overall MSHR miss cycles
system.cpu1.icache.demand_mshr_miss_rate::.cpu1.inst     0.484818                       # mshr miss rate for demand accesses
system.cpu1.icache.demand_mshr_miss_rate::total     0.484818                       # mshr miss rate for demand accesses
system.cpu1.icache.overall_mshr_miss_rate::.cpu1.inst     0.484818                       # mshr miss rate for overall accesses
system.cpu1.icache.overall_mshr_miss_rate::total     0.484818                       # mshr miss rate for overall accesses
system.cpu1.icache.demand_avg_mshr_miss_latency::.cpu1.inst 27964.459960                       # average overall mshr miss latency
system.cpu1.icache.demand_avg_mshr_miss_latency::total 27964.459960                       # average overall mshr miss latency
system.cpu1.icache.overall_avg_mshr_miss_latency::.cpu1.inst 27964.459960                       # average overall mshr miss latency
system.cpu1.icache.overall_avg_mshr_miss_latency::total 27964.459960                       # average overall mshr miss latency
system.cpu1.icache.replacements                615289                       # number of replacements
system.cpu1.icache.ReadReq_hits::.cpu1.inst       653842                       # number of ReadReq hits
system.cpu1.icache.ReadReq_hits::total         653842                       # number of ReadReq hits
system.cpu1.icache.ReadReq_misses::.cpu1.inst       615306                       # number of ReadReq misses
system.cpu1.icache.ReadReq_misses::total       615306                       # number of ReadReq misses
system.cpu1.icache.ReadReq_miss_latency::.cpu1.inst  17822005000                       # number of ReadReq miss cycles
system.cpu1.icache.ReadReq_miss_latency::total  17822005000                       # number of ReadReq miss cycles
system.cpu1.icache.ReadReq_accesses::.cpu1.inst      1269148                       # number of ReadReq accesses(hits+misses)
system.cpu1.icache.ReadReq_accesses::total      1269148                       # number of ReadReq accesses(hits+misses)
system.cpu1.icache.ReadReq_miss_rate::.cpu1.inst     0.484818                       # miss rate for ReadReq accesses
system.cpu1.icache.ReadReq_miss_rate::total     0.484818                       # miss rate for ReadReq accesses
system.cpu1.icache.ReadReq_avg_miss_latency::.cpu1.inst 28964.458335                       # average ReadReq miss latency
system.cpu1.icache.ReadReq_avg_miss_latency::total 28964.458335                       # average ReadReq miss latency
system.cpu1.icache.ReadReq_mshr_misses::.cpu1.inst       615306                       # number of ReadReq MSHR misses
system.cpu1.icache.ReadReq_mshr_misses::total       615306                       # number of ReadReq MSHR misses
system.cpu1.icache.ReadReq_mshr_miss_latency::.cpu1.inst  17206700000                       # number of ReadReq MSHR miss cycles
system.cpu1.icache.ReadReq_mshr_miss_latency::total  17206700000                       # number of ReadReq MSHR miss cycles
system.cpu1.icache.ReadReq_mshr_miss_rate::.cpu1.inst     0.484818                       # mshr miss rate for ReadReq accesses
system.cpu1.icache.ReadReq_mshr_miss_rate::total     0.484818                       # mshr miss rate for ReadReq accesses
system.cpu1.icache.ReadReq_avg_mshr_miss_latency::.cpu1.inst 27964.459960                       # average ReadReq mshr miss latency
system.cpu1.icache.ReadReq_avg_mshr_miss_latency::total 27964.459960                       # average ReadReq mshr miss latency
system.cpu1.icache.power_state.pwrStateResidencyTicks::UNDEFINED  22663282000                       # Cumulative time (in ticks) in various power states
system.cpu1.icache.tags.tagsinuse           15.999367                       # Cycle average of tags in use
system.cpu1.icache.tags.total_refs            1269147                       # Total number of references to valid blocks.
system.cpu1.icache.tags.sampled_refs           615305                       # Sample count of references to valid blocks.
system.cpu1.icache.tags.avg_refs             2.062631                       # Average number of references to valid blocks.
system.cpu1.icache.tags.warmup_cycle            92500                       # Cycle when the warmup percentage was hit.
system.cpu1.icache.tags.occ_blocks::.cpu1.inst    15.999367                       # Average occupied blocks per requestor
system.cpu1.icache.tags.occ_percent::.cpu1.inst     0.999960                       # Average percentage of cache occupancy
system.cpu1.icache.tags.occ_percent::total     0.999960                       # Average percentage of cache occupancy
system.cpu1.icache.tags.occ_task_id_blocks::1024           16                       # Occupied blocks per task id
system.cpu1.icache.tags.age_task_id_blocks_1024::0           16                       # Occupied blocks per task id
system.cpu1.icache.tags.occ_task_id_percent::1024            1                       # Percentage of cache occupancy per task id
system.cpu1.icache.tags.tag_accesses         10768489                       # Number of tag accesses
system.cpu1.icache.tags.data_accesses        10768489                       # Number of data accesses
system.cpu1.icache.tags.power_state.pwrStateResidencyTicks::UNDEFINED  22663282000                       # Cumulative time (in ticks) in various power states
system.cpu1.dtb.walker.power_state.pwrStateResidencyTicks::UNDEFINED  22663282000                       # Cumulative time (in ticks) in various power states
system.cpu1.interrupts.clk_domain.clock          8000                       # Clock period in ticks
system.cpu1.itb_walker_cache.blocked_cycles::no_mshrs            0                       # number of cycles access was blocked
system.cpu1.itb_walker_cache.blocked_cycles::no_targets            0                       # number of cycles access was blocked
system.cpu1.itb_walker_cache.blocked::no_mshrs            0                       # number of cycles access was blocked
system.cpu1.itb_walker_cache.blocked::no_targets            0                       # number of cycles access was blocked
system.cpu1.itb_walker_cache.avg_blocked_cycles::no_mshrs          nan                       # average number of cycles each access was blocked
system.cpu1.itb_walker_cache.avg_blocked_cycles::no_targets          nan                       # average number of cycles each access was blocked
system.cpu1.itb_walker_cache.replacements            0                       # number of replacements
system.cpu1.itb_walker_cache.power_state.pwrStateResidencyTicks::UNDEFINED  22663282000                       # Cumulative time (in ticks) in various power states
system.cpu1.itb_walker_cache.tags.tagsinuse            0                       # Cycle average of tags in use
system.cpu1.itb_walker_cache.tags.total_refs            0                       # Total number of references to valid blocks.
system.cpu1.itb_walker_cache.tags.sampled_refs            0                       # Sample count of references to valid blocks.
system.cpu1.itb_walker_cache.tags.avg_refs          nan                       # Average number of references to valid blocks.
system.cpu1.itb_walker_cache.tags.warmup_cycle            0                       # Cycle when the warmup percentage was hit.
system.cpu1.itb_walker_cache.tags.tag_accesses            0                       # Number of tag accesses
system.cpu1.itb_walker_cache.tags.data_accesses            0                       # Number of data accesses
system.cpu1.itb_walker_cache.tags.power_state.pwrStateResidencyTicks::UNDEFINED  22663282000                       # Cumulative time (in ticks) in various power states
system.cpu1.dtb_walker_cache.blocked_cycles::no_mshrs            0                       # number of cycles access was blocked
system.cpu1.dtb_walker_cache.blocked_cycles::no_targets            0                       # number of cycles access was blocked
system.cpu1.dtb_walker_cache.blocked::no_mshrs            0                       # number of cycles access was blocked
system.cpu1.dtb_walker_cache.blocked::no_targets            0                       # number of cycles access was blocked
system.cpu1.dtb_walker_cache.avg_blocked_cycles::no_mshrs          nan                       # average number of cycles each access was blocked
system.cpu1.dtb_walker_cache.avg_blocked_cycles::no_targets          nan                       # average number of cycles each access was blocked
system.cpu1.dtb_walker_cache.replacements            0                       # number of replacements
system.cpu1.dtb_walker_cache.power_state.pwrStateResidencyTicks::UNDEFINED  22663282000                       # Cumulative time (in ticks) in various power states
system.cpu1.dtb_walker_cache.tags.tagsinuse            0                       # Cycle average of tags in use
system.cpu1.dtb_walker_cache.tags.total_refs            0                       # Total number of references to valid blocks.
system.cpu1.dtb_walker_cache.tags.sampled_refs            0                       # Sample count of references to valid blocks.
system.cpu1.dtb_walker_cache.tags.avg_refs          nan                       # Average number of references to valid blocks.
system.cpu1.dtb_walker_cache.tags.warmup_cycle            0                       # Cycle when the warmup percentage was hit.
system.cpu1.dtb_walker_cache.tags.tag_accesses            0                       # Number of tag accesses
system.cpu1.dtb_walker_cache.tags.data_accesses            0                       # Number of data accesses
system.cpu1.dtb_walker_cache.tags.power_state.pwrStateResidencyTicks::UNDEFINED  22663282000                       # Cumulative time (in ticks) in various power states
system.cpu1.dcache.demand_hits::.cpu1.data      1298551                       # number of demand (read+write) hits
system.cpu1.dcache.demand_hits::total         1298551                       # number of demand (read+write) hits
system.cpu1.dcache.overall_hits::.cpu1.data      1298551                       # number of overall hits
system.cpu1.dcache.overall_hits::total        1298551                       # number of overall hits
system.cpu1.dcache.demand_misses::.cpu1.data       282615                       # number of demand (read+write) misses
system.cpu1.dcache.demand_misses::total        282615                       # number of demand (read+write) misses
system.cpu1.dcache.overall_misses::.cpu1.data       282615                       # number of overall misses
system.cpu1.dcache.overall_misses::total       282615                       # number of overall misses
system.cpu1.dcache.demand_miss_latency::.cpu1.data   8166854000                       # number of demand (read+write) miss cycles
system.cpu1.dcache.demand_miss_latency::total   8166854000                       # number of demand (read+write) miss cycles
system.cpu1.dcache.overall_miss_latency::.cpu1.data   8166854000                       # number of overall miss cycles
system.cpu1.dcache.overall_miss_latency::total   8166854000                       # number of overall miss cycles
system.cpu1.dcache.demand_accesses::.cpu1.data      1581166                       # number of demand (read+write) accesses
system.cpu1.dcache.demand_accesses::total      1581166                       # number of demand (read+write) accesses
system.cpu1.dcache.overall_accesses::.cpu1.data      1581166                       # number of overall (read+write) accesses
system.cpu1.dcache.overall_accesses::total      1581166                       # number of overall (read+write) accesses
system.cpu1.dcache.demand_miss_rate::.cpu1.data     0.178738                       # miss rate for demand accesses
system.cpu1.dcache.demand_miss_rate::total     0.178738                       # miss rate for demand accesses
system.cpu1.dcache.overall_miss_rate::.cpu1.data     0.178738                       # miss rate for overall accesses
system.cpu1.dcache.overall_miss_rate::total     0.178738                       # miss rate for overall accesses
system.cpu1.dcache.demand_avg_miss_latency::.cpu1.data 28897.454134                       # average overall miss latency
system.cpu1.dcache.demand_avg_miss_latency::total 28897.454134                       # average overall miss latency
system.cpu1.dcache.overall_avg_miss_latency::.cpu1.data 28897.454134                       # average overall miss latency
system.cpu1.dcache.overall_avg_miss_latency::total 28897.454134                       # average overall miss latency
system.cpu1.dcache.blocked_cycles::no_mshrs            0                       # number of cycles access was blocked
system.cpu1.dcache.blocked_cycles::no_targets            0                       # number of cycles access was blocked
system.cpu1.dcache.blocked::no_mshrs                0                       # number of cycles access was blocked
system.cpu1.dcache.blocked::no_targets              0                       # number of cycles access was blocked
system.cpu1.dcache.avg_blocked_cycles::no_mshrs          nan                       # average number of cycles each access was blocked
system.cpu1.dcache.avg_blocked_cycles::no_targets          nan                       # average number of cycles each access was blocked
system.cpu1.dcache.writebacks::.writebacks       152798                       # number of writebacks
system.cpu1.dcache.writebacks::total           152798                       # number of writebacks
system.cpu1.dcache.demand_mshr_hits::.cpu1.data        35294                       # number of demand (read+write) MSHR hits
system.cpu1.dcache.demand_mshr_hits::total        35294                       # number of demand (read+write) MSHR hits
system.cpu1.dcache.overall_mshr_hits::.cpu1.data        35294                       # number of overall MSHR hits
system.cpu1.dcache.overall_mshr_hits::total        35294                       # number of overall MSHR hits
system.cpu1.dcache.demand_mshr_misses::.cpu1.data       247321                       # number of demand (read+write) MSHR misses
system.cpu1.dcache.demand_mshr_misses::total       247321                       # number of demand (read+write) MSHR misses
system.cpu1.dcache.overall_mshr_misses::.cpu1.data       247321                       # number of overall MSHR misses
system.cpu1.dcache.overall_mshr_misses::total       247321                       # number of overall MSHR misses
system.cpu1.dcache.demand_mshr_miss_latency::.cpu1.data   6737945500                       # number of demand (read+write) MSHR miss cycles
system.cpu1.dcache.demand_mshr_miss_latency::total   6737945500                       # number of demand (read+write) MSHR miss cycles
system.cpu1.dcache.overall_mshr_miss_latency::.cpu1.data   6737945500                       # number of overall MSHR miss cycles
system.cpu1.dcache.overall_mshr_miss_latency::total   6737945500                       # number of overall MSHR miss cycles
system.cpu1.dcache.demand_mshr_miss_rate::.cpu1.data     0.156417                       # mshr miss rate for demand accesses
system.cpu1.dcache.demand_mshr_miss_rate::total     0.156417                       # mshr miss rate for demand accesses
system.cpu1.dcache.overall_mshr_miss_rate::.cpu1.data     0.156417                       # mshr miss rate for overall accesses
system.cpu1.dcache.overall_mshr_miss_rate::total     0.156417                       # mshr miss rate for overall accesses
system.cpu1.dcache.demand_avg_mshr_miss_latency::.cpu1.data 27243.725765                       # average overall mshr miss latency
system.cpu1.dcache.demand_avg_mshr_miss_latency::total 27243.725765                       # average overall mshr miss latency
system.cpu1.dcache.overall_avg_mshr_miss_latency::.cpu1.data 27243.725765                       # average overall mshr miss latency
system.cpu1.dcache.overall_avg_mshr_miss_latency::total 27243.725765                       # average overall mshr miss latency
system.cpu1.dcache.replacements                247305                       # number of replacements
system.cpu1.dcache.ReadReq_hits::.cpu1.data       754376                       # number of ReadReq hits
system.cpu1.dcache.ReadReq_hits::total         754376                       # number of ReadReq hits
system.cpu1.dcache.ReadReq_misses::.cpu1.data       181392                       # number of ReadReq misses
system.cpu1.dcache.ReadReq_misses::total       181392                       # number of ReadReq misses
system.cpu1.dcache.ReadReq_miss_latency::.cpu1.data   4984251500                       # number of ReadReq miss cycles
system.cpu1.dcache.ReadReq_miss_latency::total   4984251500                       # number of ReadReq miss cycles
system.cpu1.dcache.ReadReq_accesses::.cpu1.data       935768                       # number of ReadReq accesses(hits+misses)
system.cpu1.dcache.ReadReq_accesses::total       935768                       # number of ReadReq accesses(hits+misses)
system.cpu1.dcache.ReadReq_miss_rate::.cpu1.data     0.193843                       # miss rate for ReadReq accesses
system.cpu1.dcache.ReadReq_miss_rate::total     0.193843                       # miss rate for ReadReq accesses
system.cpu1.dcache.ReadReq_avg_miss_latency::.cpu1.data 27477.791193                       # average ReadReq miss latency
system.cpu1.dcache.ReadReq_avg_miss_latency::total 27477.791193                       # average ReadReq miss latency
system.cpu1.dcache.ReadReq_mshr_hits::.cpu1.data         7038                       # number of ReadReq MSHR hits
system.cpu1.dcache.ReadReq_mshr_hits::total         7038                       # number of ReadReq MSHR hits
[...]
system.mem_ctrls.bytesPerActivate::384-511         2830      3.56%     85.73% # Bytes accessed per row activation
system.mem_ctrls.bytesPerActivate::512-639         2229      2.80%     88.53% # Bytes accessed per row activation
system.mem_ctrls.bytesPerActivate::640-767         5139      6.46%     94.99% # Bytes accessed per row activation
system.mem_ctrls.bytesPerActivate::768-895         2216      2.78%     97.77% # Bytes accessed per row activation
system.mem_ctrls.bytesPerActivate::896-1023          728      0.91%     98.69% # Bytes accessed per row activation
system.mem_ctrls.bytesPerActivate::1024-1151         1044      1.31%    100.00% # Bytes accessed per row activation
system.mem_ctrls.bytesPerActivate::total        79570                       # Bytes accessed per row activation
system.mem_ctrls.rdPerTurnAround::samples         2616                       # Reads before turning the bus around for writes
system.mem_ctrls.rdPerTurnAround::mean      88.718272                       # Reads before turning the bus around for writes
system.mem_ctrls.rdPerTurnAround::gmean     68.930377                       # Reads before turning the bus around for writes
system.mem_ctrls.rdPerTurnAround::stdev     66.565264                       # Reads before turning the bus around for writes
system.mem_ctrls.rdPerTurnAround::0-31            338     12.92%     12.92% # Reads before turning the bus around for writes
system.mem_ctrls.rdPerTurnAround::32-63          1012     38.69%     51.61% # Reads before turning the bus around for writes
system.mem_ctrls.rdPerTurnAround::64-95           414     15.83%     67.43% # Reads before turning the bus around for writes
system.mem_ctrls.rdPerTurnAround::96-127          197      7.53%     74.96% # Reads before turning the bus around for writes
system.mem_ctrls.rdPerTurnAround::128-159          209      7.99%     82.95% # Reads before turning the bus around for writes
system.mem_ctrls.rdPerTurnAround::160-191          194      7.42%     90.37% # Reads before turning the bus around for writes
system.mem_ctrls.rdPerTurnAround::192-223          129      4.93%     95.30% # Reads before turning the bus around for writes
system.mem_ctrls.rdPerTurnAround::224-255           69      2.64%     97.94% # Reads before turning the bus around for writes
system.mem_ctrls.rdPerTurnAround::256-287           35      1.34%     99.27% # Reads before turning the bus around for writes
system.mem_ctrls.rdPerTurnAround::288-319           12      0.46%     99.73% # Reads before turning the bus around for writes
system.mem_ctrls.rdPerTurnAround::320-351            3      0.11%     99.85% # Reads before turning the bus around for writes
system.mem_ctrls.rdPerTurnAround::352-383            2      0.08%     99.92% # Reads before turning the bus around for writes
system.mem_ctrls.rdPerTurnAround::576-607            1      0.04%     99.96% # Reads before turning the bus around for writes
system.mem_ctrls.rdPerTurnAround::672-703            1      0.04%    100.00% # Reads before turning the bus around for writes
system.mem_ctrls.rdPerTurnAround::total          2616                       # Reads before turning the bus around for writes
system.mem_ctrls.wrPerTurnAround::samples         2615                       # Writes before turning the bus around for reads
system.mem_ctrls.wrPerTurnAround::mean      16.638623                       # Writes before turning the bus around for reads
system.mem_ctrls.wrPerTurnAround::gmean     16.610457                       # Writes before turning the bus around for reads
system.mem_ctrls.wrPerTurnAround::stdev      0.988747                       # Writes before turning the bus around for reads
system.mem_ctrls.wrPerTurnAround::16             1792     68.53%     68.53% # Writes before turning the bus around for reads
system.mem_ctrls.wrPerTurnAround::17               85      3.25%     71.78% # Writes before turning the bus around for reads
system.mem_ctrls.wrPerTurnAround::18              647     24.74%     96.52% # Writes before turning the bus around for reads
system.mem_ctrls.wrPerTurnAround::19               75      2.87%     99.39% # Writes before turning the bus around for reads
system.mem_ctrls.wrPerTurnAround::20               14      0.54%     99.92% # Writes before turning the bus around for reads
system.mem_ctrls.wrPerTurnAround::21                2      0.08%    100.00% # Writes before turning the bus around for reads
system.mem_ctrls.wrPerTurnAround::total          2615                       # Writes before turning the bus around for reads
system.mem_ctrls.bytesReadDRAM               14853568                       # Total number of bytes read from DRAM
system.mem_ctrls.bytesReadWrQ                 1145344                       # Total number of bytes read from write queue
system.mem_ctrls.bytesWritten                 2784960                       # Total number of bytes written to DRAM
system.mem_ctrls.bytesReadSys                15998912                       # Total read bytes from the system interface side
system.mem_ctrls.bytesWrittenSys              3107520                       # Total written bytes from the system interface side
system.mem_ctrls.avgRdBW                       655.40                       # Average DRAM read bandwidth in MiByte/s
system.mem_ctrls.avgWrBW                       122.88                       # Average achieved write bandwidth in MiByte/s
system.mem_ctrls.avgRdBWSys                    705.94                       # Average system read bandwidth in MiByte/s
system.mem_ctrls.avgWrBWSys                    137.12                       # Average system write bandwidth in MiByte/s
system.mem_ctrls.peakBW                      12800.00                       # Theoretical peak bandwidth in MiByte/s
system.mem_ctrls.busUtil                         6.08                       # Data bus utilization in percentage
system.mem_ctrls.busUtilRead                     5.12                       # Data bus utilization in percentage for reads
system.mem_ctrls.busUtilWrite                    0.96                       # Data bus utilization in percentage for writes
system.mem_ctrls.totGap                   22663267000                       # Total gap between requests
system.mem_ctrls.avgGap                      75914.18                       # Average gap between requests
system.mem_ctrls.masterReadBytes::.cpu0.inst       245312                       # Per-master bytes read from memory
system.mem_ctrls.masterReadBytes::.cpu0.data      2731840                       # Per-master bytes read from memory
system.mem_ctrls.masterReadBytes::.cpu1.inst      9034368                       # Per-master bytes read from memory
system.mem_ctrls.masterReadBytes::.cpu1.data      2842048                       # Per-master bytes read from memory
system.mem_ctrls.masterWriteBytes::.writebacks      2784960                       # Per-master bytes write to memory
system.mem_ctrls.masterReadRate::.cpu0.inst 10824204.543719660491                       # Per-master bytes read from memory rate (Bytes/sec)
system.mem_ctrls.masterReadRate::.cpu0.data 120540352.452041149139                       # Per-master bytes read from memory rate (Bytes/sec)
system.mem_ctrls.masterReadRate::.cpu1.inst 398634584.346609652042                       # Per-master bytes read from memory rate (Bytes/sec)
system.mem_ctrls.masterReadRate::.cpu1.data 125403196.236096784472                       # Per-master bytes read from memory rate (Bytes/sec)
system.mem_ctrls.masterWriteRate::.writebacks 122884231.860151588917                       # Per-master bytes write to memory rate (Bytes/sec)
system.mem_ctrls.masterReadAccesses::.cpu0.inst         3833                       # Per-master read serviced memory accesses
system.mem_ctrls.masterReadAccesses::.cpu0.data        53166                       # Per-master read serviced memory accesses
system.mem_ctrls.masterReadAccesses::.cpu1.inst       141162                       # Per-master read serviced memory accesses
system.mem_ctrls.masterReadAccesses::.cpu1.data        51822                       # Per-master read serviced memory accesses
system.mem_ctrls.masterWriteAccesses::.writebacks        48555                       # Per-master write serviced memory accesses
system.mem_ctrls.masterReadTotalLat::.cpu0.inst    119618750                       # Per-master read total memory access latency
system.mem_ctrls.masterReadTotalLat::.cpu0.data   1252909000                       # Per-master read total memory access latency
system.mem_ctrls.masterReadTotalLat::.cpu1.inst   4038200500                       # Per-master read total memory access latency
system.mem_ctrls.masterReadTotalLat::.cpu1.data   1628783750                       # Per-master read total memory access latency
system.mem_ctrls.masterWriteTotalLat::.writebacks 551686963500                       # Per-master write total memory access latency
system.mem_ctrls.masterReadAvgLat::.cpu0.inst     31207.61                       # Per-master read average memory access latency
system.mem_ctrls.masterReadAvgLat::.cpu0.data     23565.98                       # Per-master read average memory access latency
system.mem_ctrls.masterReadAvgLat::.cpu1.inst     28606.85                       # Per-master read average memory access latency
system.mem_ctrls.masterReadAvgLat::.cpu1.data     31430.35                       # Per-master read average memory access latency
system.mem_ctrls.masterWriteAvgLat::.writebacks  11362104.08                       # Per-master write average memory access latency
system.mem_ctrls.pageHitRate                    71.12                       # Row buffer hit rate, read and write combined
system.mem_ctrls.rank1.actEnergy            405273540                       # Energy for activate commands per rank (pJ)
system.mem_ctrls.rank1.preEnergy            215377635                       # Energy for precharge commands per rank (pJ)
system.mem_ctrls.rank1.readEnergy          1073920260                       # Energy for read commands per rank (pJ)
system.mem_ctrls.rank1.writeEnergy          111838500                       # Energy for write commands per rank (pJ)
system.mem_ctrls.rank1.refreshEnergy     1788602400.000000                       # Energy for refresh commands per rank (pJ)
system.mem_ctrls.rank1.actBackEnergy      10144112730                       # Energy for active background per rank (pJ)
system.mem_ctrls.rank1.preBackEnergy        160289760                       # Energy for precharge background per rank (pJ)
system.mem_ctrls.rank1.actPowerDownEnergy            0                       # Energy for active power-down per rank (pJ)
system.mem_ctrls.rank1.prePowerDownEnergy            0                       # Energy for precharge power-down per rank (pJ)
system.mem_ctrls.rank1.selfRefreshEnergy            0                       # Energy for self refresh per rank (pJ)
system.mem_ctrls.rank1.totalEnergy        13899414825                       # Total energy per rank (pJ)
system.mem_ctrls.rank1.averagePower        613.301058                       # Core power per rank (mW)
system.mem_ctrls.rank1.totalIdleTime                0                       # Total Idle time Per DRAM Rank
system.mem_ctrls.rank1.memoryStateTime::IDLE    330546250                       # Time in different power states
system.mem_ctrls.rank1.memoryStateTime::REF    756600000                       # Time in different power states
system.mem_ctrls.rank1.memoryStateTime::SREF            0                       # Time in different power states
system.mem_ctrls.rank1.memoryStateTime::PRE_PDN            0                       # Time in different power states
system.mem_ctrls.rank1.memoryStateTime::ACT  21576135750                       # Time in different power states
system.mem_ctrls.rank1.memoryStateTime::ACT_PDN            0                       # Time in different power states
system.mem_ctrls.rank0.actEnergy            162949080                       # Energy for activate commands per rank (pJ)
system.mem_ctrls.rank0.preEnergy             86590515                       # Energy for precharge commands per rank (pJ)
system.mem_ctrls.rank0.readEnergy           583180920                       # Energy for read commands per rank (pJ)
system.mem_ctrls.rank0.writeEnergy          115288920                       # Energy for write commands per rank (pJ)
system.mem_ctrls.rank0.refreshEnergy     1788602400.000000                       # Energy for refresh commands per rank (pJ)
system.mem_ctrls.rank0.actBackEnergy       9718439010                       # Energy for active background per rank (pJ)
system.mem_ctrls.rank0.preBackEnergy        518751840                       # Energy for precharge background per rank (pJ)
system.mem_ctrls.rank0.actPowerDownEnergy            0                       # Energy for active power-down per rank (pJ)
system.mem_ctrls.rank0.prePowerDownEnergy            0                       # Energy for precharge power-down per rank (pJ)
system.mem_ctrls.rank0.selfRefreshEnergy            0                       # Energy for self refresh per rank (pJ)
system.mem_ctrls.rank0.totalEnergy        12973802685                       # Total energy per rank (pJ)
system.mem_ctrls.rank0.averagePower        572.459129                       # Core power per rank (mW)
system.mem_ctrls.rank0.totalIdleTime                0                       # Total Idle time Per DRAM Rank
system.mem_ctrls.rank0.memoryStateTime::IDLE   1268481250                       # Time in different power states
system.mem_ctrls.rank0.memoryStateTime::REF    756600000                       # Time in different power states
system.mem_ctrls.rank0.memoryStateTime::SREF            0                       # Time in different power states
system.mem_ctrls.rank0.memoryStateTime::PRE_PDN            0                       # Time in different power states
system.mem_ctrls.rank0.memoryStateTime::ACT  20638200750                       # Time in different power states
system.mem_ctrls.rank0.memoryStateTime::ACT_PDN            0                       # Time in different power states
system.mem_ctrls.power_state.pwrStateResidencyTicks::UNDEFINED  22663282000                       # Cumulative time (in ticks) in various power states
system.cpu_clk_domain.clock                       500                       # Clock period in ticks
system.tol2bus.trans_dist::ReadResp           1129049                       # Transaction distribution
system.tol2bus.trans_dist::WritebackDirty       442917                       # Transaction distribution
system.tol2bus.trans_dist::WritebackClean       686179                       # Transaction distribution
system.tol2bus.trans_dist::CleanEvict          334913                       # Transaction distribution
system.tol2bus.trans_dist::ReadExReq            84853                       # Transaction distribution
system.tol2bus.trans_dist::ReadExResp           84853                       # Transaction distribution
system.tol2bus.trans_dist::ReadCleanReq        686212                       # Transaction distribution
system.tol2bus.trans_dist::ReadSharedReq       442838                       # Transaction distribution
system.tol2bus.pkt_count_system.cpu0.icache.mem_side::system.l2.cpu_side       212702                       # Packet count per connected master and slave (bytes)
system.tol2bus.pkt_count_system.cpu0.dcache.mem_side::system.l2.cpu_side       841094                       # Packet count per connected master and slave (bytes)
system.tol2bus.pkt_count_system.cpu1.icache.mem_side::system.l2.cpu_side      1845900                       # Packet count per connected master and slave (bytes)
system.tol2bus.pkt_count_system.cpu1.dcache.mem_side::system.l2.cpu_side       741947                       # Packet count per connected master and slave (bytes)
system.tol2bus.pkt_count::total               3641643                       # Packet count per connected master and slave (bytes)
system.tol2bus.pkt_size_system.cpu0.icache.mem_side::system.l2.cpu_side      9074944                       # Cumulative packet size per connected master and slave (bytes)
system.tol2bus.pkt_size_system.cpu0.dcache.mem_side::system.l2.cpu_side     33403776                       # Cumulative packet size per connected master and slave (bytes)
system.tol2bus.pkt_size_system.cpu1.icache.mem_side::system.l2.cpu_side     78758016                       # Cumulative packet size per connected master and slave (bytes)
system.tol2bus.pkt_size_system.cpu1.dcache.mem_side::system.l2.cpu_side     25607616                       # Cumulative packet size per connected master and slave (bytes)
system.tol2bus.pkt_size::total              146844352                       # Cumulative packet size per connected master and slave (bytes)
system.tol2bus.snoops                          250171                       # Total snoops (count)
system.tol2bus.snoopTraffic                   3107520                       # Total snoop traffic (bytes)
system.tol2bus.snoop_fanout::samples          1464074                       # Request fanout histogram
system.tol2bus.snoop_fanout::mean            0.000986                       # Request fanout histogram
system.tol2bus.snoop_fanout::stdev           0.031379                       # Request fanout histogram
system.tol2bus.snoop_fanout::underflows             0      0.00%      0.00% # Request fanout histogram
system.tol2bus.snoop_fanout::0                1462631     99.90%     99.90% # Request fanout histogram
system.tol2bus.snoop_fanout::1                   1443      0.10%    100.00% # Request fanout histogram
system.tol2bus.snoop_fanout::2                      0      0.00%    100.00% # Request fanout histogram
system.tol2bus.snoop_fanout::3                      0      0.00%    100.00% # Request fanout histogram
system.tol2bus.snoop_fanout::4                      0      0.00%    100.00% # Request fanout histogram
system.tol2bus.snoop_fanout::5                      0      0.00%    100.00% # Request fanout histogram
system.tol2bus.snoop_fanout::6                      0      0.00%    100.00% # Request fanout histogram
system.tol2bus.snoop_fanout::7                      0      0.00%    100.00% # Request fanout histogram
system.tol2bus.snoop_fanout::8                      0      0.00%    100.00% # Request fanout histogram
system.tol2bus.snoop_fanout::overflows              0      0.00%    100.00% # Request fanout histogram
system.tol2bus.snoop_fanout::min_value              0                       # Request fanout histogram
system.tol2bus.snoop_fanout::max_value              1                       # Request fanout histogram
system.tol2bus.snoop_fanout::total            1464074                       # Request fanout histogram
system.tol2bus.reqLayer0.occupancy         2294411500                       # Layer occupancy (ticks)
system.tol2bus.reqLayer0.utilization             10.1                       # Layer utilization (%)
system.tol2bus.respLayer5.occupancy         371148166                       # Layer occupancy (ticks)
system.tol2bus.respLayer5.utilization             1.6                       # Layer utilization (%)
system.tol2bus.respLayer4.occupancy         923460492                       # Layer occupancy (ticks)
system.tol2bus.respLayer4.utilization             4.1                       # Layer utilization (%)
system.tol2bus.respLayer1.occupancy         421041024                       # Layer occupancy (ticks)
system.tol2bus.respLayer1.utilization             1.9                       # Layer utilization (%)
system.tol2bus.respLayer0.occupancy         106409399                       # Layer occupancy (ticks)
system.tol2bus.respLayer0.utilization             0.5                       # Layer utilization (%)
system.tol2bus.power_state.pwrStateResidencyTicks::UNDEFINED  22663282000                       # Cumulative time (in ticks) in various power states

---------- End Simulation Statistics   ----------
