
---------- Begin Simulation Statistics ----------
final_tick                                57873909500                       # Number of ticks from beginning of simulation (restored from checkpoints and never reset)
host_inst_rate                                 206899                       # Simulator instruction rate (inst/s)
host_mem_usage                                4434628                       # Number of bytes of host memory used
host_op_rate                                   330123                       # Simulator op (including micro ops) rate (op/s)
host_seconds                                    72.38                       # Real time elapsed on the host
host_tick_rate                              799630503                       # Simulator tick rate (ticks/s)
sim_freq                                 1000000000000                       # Frequency of simulated ticks
sim_insts                                    14974454                       # Number of instructions simulated
sim_ops                                      23892890                       # Number of ops (including micro ops) simulated
sim_seconds                                  0.057874                       # Number of seconds simulated
sim_ticks                                 57873909500                       # Number of ticks simulated
system.cpu0.branchPred.BTBCorrect                   0                       # Number of correct BTB predictions (this stat may not work properly.
system.cpu0.branchPred.BTBHitPct                  nan                       # BTB Hit Percentage
system.cpu0.branchPred.BTBHits                      0                       # Number of BTB hits
system.cpu0.branchPred.BTBLookups                   0                       # Number of BTB lookups
system.cpu0.branchPred.RASInCorrect                 0                       # Number of incorrect RAS predictions.
system.cpu0.branchPred.condIncorrect               40                       # Number of conditional branches incorrect
system.cpu0.branchPred.condPredicted               85                       # Number of conditional branches predicted
system.cpu0.branchPred.indirectHits                 0                       # Number of indirect target hits.
system.cpu0.branchPred.indirectLookups             25                       # Number of indirect predictor lookups.
system.cpu0.branchPred.indirectMisses              25                       # Number of indirect misses.
system.cpu0.branchPred.lookups                     85                       # Number of BP lookups
system.cpu0.branchPred.usedRAS                      0                       # Number of times the RAS was used to get a target.
system.cpu0.branchPredindirectMispredicted           11                       # Number of mispredicted indirect branches.
system.cpu0.committedInsts                   10000001                       # Number of instructions committed
system.cpu0.committedOps                     14509368                       # Number of ops (including micro ops) committed
system.cpu0.cpi                             11.574781                       # CPI: cycles per instruction
system.cpu0.discardedOps                      1920447                       # Number of ops (including micro ops) which were discarded before commit
system.cpu0.dtb.rdAccesses                    1871003                       # TLB accesses on read requests
system.cpu0.dtb.rdMisses                       365554                       # TLB misses on read requests
system.cpu0.dtb.wrAccesses                    7295814                       # TLB accesses on write requests
system.cpu0.dtb.wrMisses                        28448                       # TLB misses on write requests
system.cpu0.fetch2.amo_instructions                 0                       # Number of memory atomic instructions successfully decoded
system.cpu0.fetch2.fp_instructions                  0                       # Number of floating point instructions successfully decoded
system.cpu0.fetch2.int_instructions                 8                       # Number of integer instructions successfully decoded
system.cpu0.fetch2.load_instructions                0                       # Number of memory load instructions successfully decoded
system.cpu0.fetch2.store_instructions               0                       # Number of memory store instructions successfully decoded
system.cpu0.fetch2.vec_instructions                 0                       # Number of SIMD instructions successfully decoded
system.cpu0.idleCycles                       95776498                       # Total number of cycles that the object has spent stopped
system.cpu0.ipc                              0.086395                       # IPC: instructions per cycle
system.cpu0.itb.rdAccesses                          0                       # TLB accesses on read requests
system.cpu0.itb.rdMisses                            0                       # TLB misses on read requests
system.cpu0.itb.wrAccesses                    2313318                       # TLB accesses on write requests
system.cpu0.itb.wrMisses                          242                       # TLB misses on write requests
system.cpu0.numCycles                       115747819                       # number of cpu cycles simulated
system.cpu0.numFetchSuspends                        0                       # Number of times Execute suspended instruction fetching
system.cpu0.numWorkItemsCompleted                   0                       # number of work items this cpu completed
system.cpu0.numWorkItemsStarted                     0                       # number of work items this cpu started
system.cpu0.op_class_0::No_OpClass               1997      0.01%      0.01% # Class of committed instruction
system.cpu0.op_class_0::IntAlu                4979363     34.32%     34.33% # Class of committed instruction
system.cpu0.op_class_0::IntMult                    36      0.00%     34.33% # Class of committed instruction
system.cpu0.op_class_0::IntDiv                   1447      0.01%     34.34% # Class of committed instruction
system.cpu0.op_class_0::FloatAdd              1090392      7.52%     41.86% # Class of committed instruction
system.cpu0.op_class_0::FloatCmp                    0      0.00%     41.86% # Class of committed instruction
system.cpu0.op_class_0::FloatCvt                  112      0.00%     41.86% # Class of committed instruction
system.cpu0.op_class_0::FloatMult                   0      0.00%     41.86% # Class of committed instruction
system.cpu0.op_class_0::FloatMultAcc                0      0.00%     41.86% # Class of committed instruction
system.cpu0.op_class_0::FloatDiv                    0      0.00%     41.86% # Class of committed instruction
system.cpu0.op_class_0::FloatMisc                   0      0.00%     41.86% # Class of committed instruction
system.cpu0.op_class_0::FloatSqrt                   0      0.00%     41.86% # Class of committed instruction
system.cpu0.op_class_0::SimdAdd                  1140      0.01%     41.87% # Class of committed instruction
system.cpu0.op_class_0::SimdAddAcc                  0      0.00%     41.87% # Class of committed instruction
system.cpu0.op_class_0::SimdAlu                  1367      0.01%     41.88% # Class of committed instruction
system.cpu0.op_class_0::SimdCmp                    12      0.00%     41.88% # Class of committed instruction
system.cpu0.op_class_0::SimdCvt                  1866      0.01%     41.89% # Class of committed instruction
system.cpu0.op_class_0::SimdMisc                 1287      0.01%     41.90% # Class of committed instruction
system.cpu0.op_class_0::SimdMult                    0      0.00%     41.90% # Class of committed instruction
system.cpu0.op_class_0::SimdMultAcc                 0      0.00%     41.90% # Class of committed instruction
system.cpu0.op_class_0::SimdShift                 426      0.00%     41.90% # Class of committed instruction
system.cpu0.op_class_0::SimdShiftAcc                0      0.00%     41.90% # Class of committed instruction
system.cpu0.op_class_0::SimdDiv                     0      0.00%     41.90% # Class of committed instruction
system.cpu0.op_class_0::SimdSqrt                    0      0.00%     41.90% # Class of committed instruction
system.cpu0.op_class_0::SimdFloatAdd                0      0.00%     41.90% # Class of committed instruction
system.cpu0.op_class_0::SimdFloatAlu                0      0.00%     41.90% # Class of committed instruction
system.cpu0.op_class_0::SimdFloatCmp                0      0.00%     41.90% # Class of committed instruction
system.cpu0.op_class_0::SimdFloatCvt                2      0.00%     41.90% # Class of committed instruction
system.cpu0.op_class_0::SimdFloatDiv                0      0.00%     41.90% # Class of committed instruction
system.cpu0.op_class_0::SimdFloatMisc               0      0.00%     41.90% # Class of committed instruction
system.cpu0.op_class_0::SimdFloatMult               0      0.00%     41.90% # Class of committed instruction
system.cpu0.op_class_0::SimdFloatMultAcc            0      0.00%     41.90% # Class of committed instruction
system.cpu0.op_class_0::SimdFloatSqrt               0      0.00%     41.90% # Class of committed instruction
system.cpu0.op_class_0::SimdReduceAdd               0      0.00%     41.90% # Class of committed instruction
system.cpu0.op_class_0::SimdReduceAlu               0      0.00%     41.90% # Class of committed instruction
system.cpu0.op_class_0::SimdReduceCmp               0      0.00%     41.90% # Class of committed instruction
system.cpu0.op_class_0::SimdFloatReduceAdd            0      0.00%     41.90% # Class of committed instruction
system.cpu0.op_class_0::SimdFloatReduceCmp            0      0.00%     41.90% # Class of committed instruction
system.cpu0.op_class_0::SimdAes                     0      0.00%     41.90% # Class of committed instruction
system.cpu0.op_class_0::SimdAesMix                  0      0.00%     41.90% # Class of committed instruction
system.cpu0.op_class_0::SimdSha1Hash                0      0.00%     41.90% # Class of committed instruction
system.cpu0.op_class_0::SimdSha1Hash2               0      0.00%     41.90% # Class of committed instruction
system.cpu0.op_class_0::SimdSha256Hash              0      0.00%     41.90% # Class of committed instruction
system.cpu0.op_class_0::SimdSha256Hash2             0      0.00%     41.90% # Class of committed instruction
system.cpu0.op_class_0::SimdShaSigma2               0      0.00%     41.90% # Class of committed instruction
system.cpu0.op_class_0::SimdShaSigma3               0      0.00%     41.90% # Class of committed instruction
system.cpu0.op_class_0::SimdPredAlu                 0      0.00%     41.90% # Class of committed instruction
system.cpu0.op_class_0::MemRead                 42409      0.29%     42.19% # Class of committed instruction
system.cpu0.op_class_0::MemWrite               389289      2.68%     44.88% # Class of committed instruction
system.cpu0.op_class_0::FloatMemRead          1092474      7.53%     52.40% # Class of committed instruction
system.cpu0.op_class_0::FloatMemWrite         6905749     47.60%    100.00% # Class of committed instruction
system.cpu0.op_class_0::IprAccess                   0      0.00%    100.00% # Class of committed instruction
system.cpu0.op_class_0::InstPrefetch                0      0.00%    100.00% # Class of committed instruction
system.cpu0.op_class_0::total                14509368                       # Class of committed instruction
system.cpu0.tickCycles                       19971321                       # Number of cycles that the object actually ticked
system.cpu0.workload.numSyscalls                   40                       # Number of system calls
system.cpu1.branchPred.BTBCorrect                   0                       # Number of correct BTB predictions (this stat may not work properly.
system.cpu1.branchPred.BTBHitPct                  nan                       # BTB Hit Percentage
system.cpu1.branchPred.BTBHits                      0                       # Number of BTB hits
system.cpu1.branchPred.BTBLookups                   0                       # Number of BTB lookups
system.cpu1.branchPred.RASInCorrect                 0                       # Number of incorrect RAS predictions.
system.cpu1.branchPred.condIncorrect               30                       # Number of conditional branches incorrect
system.cpu1.branchPred.condPredicted               68                       # Number of conditional branches predicted
system.cpu1.branchPred.indirectHits                 0                       # Number of indirect target hits.
system.cpu1.branchPred.indirectLookups             21                       # Number of indirect predictor lookups.
system.cpu1.branchPred.indirectMisses              21                       # Number of indirect misses.
system.cpu1.branchPred.lookups                     68                       # Number of BP lookups
system.cpu1.branchPred.usedRAS                      0                       # Number of times the RAS was used to get a target.
system.cpu1.branchPredindirectMispredicted           12                       # Number of mispredicted indirect branches.
system.cpu1.committedInsts                    4974453                       # Number of instructions committed
system.cpu1.committedOps                      9383522                       # Number of ops (including micro ops) committed
system.cpu1.cpi                             23.268442                       # CPI: cycles per instruction
system.cpu1.discardedOps                      3100469                       # Number of ops (including micro ops) which were discarded before commit
system.cpu1.dtb.rdAccesses                     785458                       # TLB accesses on read requests
system.cpu1.dtb.rdMisses                         2013                       # TLB misses on read requests
system.cpu1.dtb.wrAccesses                    4749179                       # TLB accesses on write requests
system.cpu1.dtb.wrMisses                        18102                       # TLB misses on write requests
system.cpu1.fetch2.amo_instructions                 0                       # Number of memory atomic instructions successfully decoded
system.cpu1.fetch2.fp_instructions                  0                       # Number of floating point instructions successfully decoded
system.cpu1.fetch2.int_instructions                 8                       # Number of integer instructions successfully decoded
system.cpu1.fetch2.load_instructions                0                       # Number of memory load instructions successfully decoded
system.cpu1.fetch2.store_instructions               0                       # Number of memory store instructions successfully decoded
system.cpu1.fetch2.vec_instructions                 0                       # Number of SIMD instructions successfully decoded
system.cpu1.idleCycles                      100085033                       # Total number of cycles that the object has spent stopped
system.cpu1.ipc                              0.042977                       # IPC: instructions per cycle
system.cpu1.itb.rdAccesses                          0                       # TLB accesses on read requests
system.cpu1.itb.rdMisses                            0                       # TLB misses on read requests
system.cpu1.itb.wrAccesses                    1962064                       # TLB accesses on write requests
system.cpu1.itb.wrMisses                          191                       # TLB misses on write requests
system.cpu1.numCycles                       115747773                       # number of cpu cycles simulated
system.cpu1.numFetchSuspends                        0                       # Number of times Execute suspended instruction fetching
system.cpu1.numWorkItemsCompleted                   0                       # number of work items this cpu completed
system.cpu1.numWorkItemsStarted                     0                       # number of work items this cpu started
system.cpu1.op_class_0::No_OpClass               2098      0.02%      0.02% # Class of committed instruction
system.cpu1.op_class_0::IntAlu                4427000     47.18%     47.20% # Class of committed instruction
system.cpu1.op_class_0::IntMult                   641      0.01%     47.21% # Class of committed instruction
system.cpu1.op_class_0::IntDiv                   1317      0.01%     47.22% # Class of committed instruction
system.cpu1.op_class_0::FloatAdd                  189      0.00%     47.22% # Class of committed instruction
system.cpu1.op_class_0::FloatCmp                    0      0.00%     47.22% # Class of committed instruction
system.cpu1.op_class_0::FloatCvt                   96      0.00%     47.22% # Class of committed instruction
system.cpu1.op_class_0::FloatMult                   0      0.00%     47.22% # Class of committed instruction
system.cpu1.op_class_0::FloatMultAcc                0      0.00%     47.22% # Class of committed instruction
system.cpu1.op_class_0::FloatDiv                    0      0.00%     47.22% # Class of committed instruction
system.cpu1.op_class_0::FloatMisc                   0      0.00%     47.22% # Class of committed instruction
system.cpu1.op_class_0::FloatSqrt                   0      0.00%     47.22% # Class of committed instruction
system.cpu1.op_class_0::SimdAdd                   916      0.01%     47.23% # Class of committed instruction
system.cpu1.op_class_0::SimdAddAcc                  0      0.00%     47.23% # Class of committed instruction
system.cpu1.op_class_0::SimdAlu                   943      0.01%     47.24% # Class of committed instruction
system.cpu1.op_class_0::SimdCmp                     0      0.00%     47.24% # Class of committed instruction
system.cpu1.op_class_0::SimdCvt                  1230      0.01%     47.26% # Class of committed instruction
system.cpu1.op_class_0::SimdMisc                  843      0.01%     47.27% # Class of committed instruction
system.cpu1.op_class_0::SimdMult                    0      0.00%     47.27% # Class of committed instruction
system.cpu1.op_class_0::SimdMultAcc                 0      0.00%     47.27% # Class of committed instruction
system.cpu1.op_class_0::SimdShift                 388      0.00%     47.27% # Class of committed instruction
system.cpu1.op_class_0::SimdShiftAcc                0      0.00%     47.27% # Class of committed instruction
system.cpu1.op_class_0::SimdDiv                     0      0.00%     47.27% # Class of committed instruction
system.cpu1.op_class_0::SimdSqrt                    0      0.00%     47.27% # Class of committed instruction
system.cpu1.op_class_0::SimdFloatAdd                0      0.00%     47.27% # Class of committed instruction
system.cpu1.op_class_0::SimdFloatAlu                0      0.00%     47.27% # Class of committed instruction
system.cpu1.op_class_0::SimdFloatCmp                0      0.00%     47.27% # Class of committed instruction
system.cpu1.op_class_0::SimdFloatCvt                0      0.00%     47.27% # Class of committed instruction
system.cpu1.op_class_0::SimdFloatDiv                0      0.00%     47.27% # Class of committed instruction
system.cpu1.op_class_0::SimdFloatMisc               0      0.00%     47.27% # Class of committed instruction
system.cpu1.op_class_0::SimdFloatMult               0      0.00%     47.27% # Class of committed instruction
system.cpu1.op_class_0::SimdFloatMultAcc            0      0.00%     47.27% # Class of committed instruction
system.cpu1.op_class_0::SimdFloatSqrt               0      0.00%     47.27% # Class of committed instruction
system.cpu1.op_class_0::SimdReduceAdd               0      0.00%     47.27% # Class of committed instruction
system.cpu1.op_class_0::SimdReduceAlu               0      0.00%     47.27% # Class of committed instruction
system.cpu1.op_class_0::SimdReduceCmp               0      0.00%     47.27% # Class of committed instruction
system.cpu1.op_class_0::SimdFloatReduceAdd            0      0.00%     47.27% # Class of committed instruction
system.cpu1.op_class_0::SimdFloatReduceCmp            0      0.00%     47.27% # Class of committed instruction
system.cpu1.op_class_0::SimdAes                     0      0.00%     47.27% # Class of committed instruction
system.cpu1.op_class_0::SimdAesMix                  0      0.00%     47.27% # Class of committed instruction
system.cpu1.op_class_0::SimdSha1Hash                0      0.00%     47.27% # Class of committed instruction
system.cpu1.op_class_0::SimdSha1Hash2               0      0.00%     47.27% # Class of committed instruction
system.cpu1.op_class_0::SimdSha256Hash              0      0.00%     47.27% # Class of committed instruction
system.cpu1.op_class_0::SimdSha256Hash2             0      0.00%     47.27% # Class of committed instruction
system.cpu1.op_class_0::SimdShaSigma2               0      0.00%     47.27% # Class of committed instruction
system.cpu1.op_class_0::SimdShaSigma3               0      0.00%     47.27% # Class of committed instruction
system.cpu1.op_class_0::SimdPredAlu                 0      0.00%     47.27% # Class of committed instruction
system.cpu1.op_class_0::MemRead                199681      2.13%     49.40% # Class of committed instruction
system.cpu1.op_class_0::MemWrite               133412      1.42%     50.82% # Class of committed instruction
system.cpu1.op_class_0::FloatMemRead             1610      0.02%     50.84% # Class of committed instruction
system.cpu1.op_class_0::FloatMemWrite         4613158     49.16%    100.00% # Class of committed instruction
system.cpu1.op_class_0::IprAccess                   0      0.00%    100.00% # Class of committed instruction
system.cpu1.op_class_0::InstPrefetch                0      0.00%    100.00% # Class of committed instruction
system.cpu1.op_class_0::total                 9383522                       # Class of committed instruction
system.cpu1.tickCycles                       15662740                       # Number of cycles that the object actually ticked
system.cpu1.workload.numSyscalls                   30                       # Number of system calls
system.membus.snoop_filter.hit_multi_requests            0                       # Number of requests hitting in the snoop filter with multiple (>1) holders of the requested data.
system.membus.snoop_filter.hit_multi_snoops            0                       # Number of snoops hitting in the snoop filter with multiple (>1) holders of the requested data.
system.membus.snoop_filter.hit_single_requests      1495926                       # Number of requests hitting in the snoop filter with a single holder of the requested data.
system.membus.snoop_filter.hit_single_snoops            0                       # Number of snoops hitting in the snoop filter with a single holder of the requested data.
system.membus.snoop_filter.tot_requests       2992912                       # Total number of requests made to the snoop filter.
system.membus.snoop_filter.tot_snoops               0                       # Total number of snoops made to the snoop filter.
system.tol2bus.snoop_filter.hit_multi_requests            0                       # Number of requests hitting in the snoop filter with multiple (>1) holders of the requested data.
system.tol2bus.snoop_filter.hit_multi_snoops            0                       # Number of snoops hitting in the snoop filter with multiple (>1) holders of the requested data.
system.tol2bus.snoop_filter.hit_single_requests      1539412                       # Number of requests hitting in the snoop filter with a single holder of the requested data.
system.tol2bus.snoop_filter.hit_single_snoops          164                       # Number of snoops hitting in the snoop filter with a single holder of the requested data.
system.tol2bus.snoop_filter.tot_requests      3078890                       # Total number of requests made to the snoop filter.
system.tol2bus.snoop_filter.tot_snoops            164                       # Total number of snoops made to the snoop filter.
system.membus.trans_dist::ReadResp               9172                       # Transaction distribution
system.membus.trans_dist::WritebackDirty      1487009                       # Transaction distribution
system.membus.trans_dist::CleanEvict             8917                       # Transaction distribution
system.membus.trans_dist::ReadExReq           1487814                       # Transaction distribution
system.membus.trans_dist::ReadExResp          1487813                       # Transaction distribution
system.membus.trans_dist::ReadSharedReq          9172                       # Transaction distribution
system.membus.pkt_count_system.l2.mem_side::system.mem_ctrls.port      4489897                       # Packet count per connected master and slave (bytes)
system.membus.pkt_count_system.l2.mem_side::total      4489897                       # Packet count per connected master and slave (bytes)
system.membus.pkt_count::total                4489897                       # Packet count per connected master and slave (bytes)
system.membus.pkt_size_system.l2.mem_side::system.mem_ctrls.port    190975616                       # Cumulative packet size per connected master and slave (bytes)
system.membus.pkt_size_system.l2.mem_side::total    190975616                       # Cumulative packet size per connected master and slave (bytes)
system.membus.pkt_size::total               190975616                       # Cumulative packet size per connected master and slave (bytes)
system.membus.snoops                                0                       # Total snoops (count)
system.membus.snoopTraffic                          0                       # Total snoop traffic (bytes)
system.membus.snoop_fanout::samples           1496986                       # Request fanout histogram
system.membus.snoop_fanout::mean                    0                       # Request fanout histogram
system.membus.snoop_fanout::stdev                   0                       # Request fanout histogram
system.membus.snoop_fanout::underflows              0      0.00%      0.00% # Request fanout histogram
system.membus.snoop_fanout::0                 1496986    100.00%    100.00% # Request fanout histogram
system.membus.snoop_fanout::1                       0      0.00%    100.00% # Request fanout histogram
system.membus.snoop_fanout::overflows               0      0.00%    100.00% # Request fanout histogram
system.membus.snoop_fanout::min_value               0                       # Request fanout histogram
system.membus.snoop_fanout::max_value               0                       # Request fanout histogram
system.membus.snoop_fanout::total             1496986                       # Request fanout histogram
system.membus.reqLayer4.occupancy          9509842500                       # Layer occupancy (ticks)
system.membus.reqLayer4.utilization              16.4                       # Layer utilization (%)
system.membus.respLayer1.occupancy         7804534500                       # Layer occupancy (ticks)
system.membus.respLayer1.utilization             13.5                       # Layer utilization (%)
system.membus.power_state.pwrStateResidencyTicks::UNDEFINED  57873909500                       # Cumulative time (in ticks) in various power states
system.voltage_domain.voltage                       1                       # Voltage in Volts
system.clk_domain.clock                          1000                       # Clock period in ticks
system.cpu0.icache.demand_hits::.cpu0.inst      2302146                       # number of demand (read+write) hits
system.cpu0.icache.demand_hits::total         2302146                       # number of demand (read+write) hits
system.cpu0.icache.overall_hits::.cpu0.inst      2302146                       # number of overall hits
system.cpu0.icache.overall_hits::total        2302146                       # number of overall hits
system.cpu0.icache.demand_misses::.cpu0.inst        11105                       # number of demand (read+write) misses
system.cpu0.icache.demand_misses::total         11105                       # number of demand (read+write) misses
system.cpu0.icache.overall_misses::.cpu0.inst        11105                       # number of overall misses
system.cpu0.icache.overall_misses::total        11105                       # number of overall misses
system.cpu0.icache.demand_miss_latency::.cpu0.inst    278914000                       # number of demand (read+write) miss cycles
system.cpu0.icache.demand_miss_latency::total    278914000                       # number of demand (read+write) miss cycles
system.cpu0.icache.overall_miss_latency::.cpu0.inst    278914000                       # number of overall miss cycles
system.cpu0.icache.overall_miss_latency::total    278914000                       # number of overall miss cycles
system.cpu0.icache.demand_accesses::.cpu0.inst      2313251                       # number of demand (read+write) accesses
system.cpu0.icache.demand_accesses::total      2313251                       # number of demand (read+write) accesses
system.cpu0.icache.overall_accesses::.cpu0.inst      2313251                       # number of overall (read+write) accesses
system.cpu0.icache.overall_accesses::total      2313251                       # number of overall (read+write) accesses
system.cpu0.icache.demand_miss_rate::.cpu0.inst     0.004801                       # miss rate for demand accesses
system.cpu0.icache.demand_miss_rate::total     0.004801                       # miss rate for demand accesses
system.cpu0.icache.overall_miss_rate::.cpu0.inst     0.004801                       # miss rate for overall accesses
system.cpu0.icache.overall_miss_rate::total     0.004801                       # miss rate for overall accesses
system.cpu0.icache.demand_avg_miss_latency::.cpu0.inst 25116.073841                       # average overall miss latency
system.cpu0.icache.demand_avg_miss_latency::total 25116.073841                       # average overall miss latency
system.cpu0.icache.overall_avg_miss_latency::.cpu0.inst 25116.073841                       # average overall miss latency
system.cpu0.icache.overall_avg_miss_latency::total 25116.073841                       # average overall miss latency
system.cpu0.icache.blocked_cycles::no_mshrs            0                       # number of cycles access was blocked
system.cpu0.icache.blocked_cycles::no_targets            0                       # number of cycles access was blocked
system.cpu0.icache.blocked::no_mshrs                0                       # number of cycles access was blocked
system.cpu0.icache.blocked::no_targets              0                       # number of cycles access was blocked
system.cpu0.icache.avg_blocked_cycles::no_mshrs          nan                       # average number of cycles each access was blocked
system.cpu0.icache.avg_blocked_cycles::no_targets          nan                       # average number of cycles each access was blocked
system.cpu0.icache.writebacks::.writebacks        11089                       # number of writebacks
system.cpu0.icache.writebacks::total            11089                       # number of writebacks
system.cpu0.icache.demand_mshr_misses::.cpu0.inst        11105                       # number of demand (read+write) MSHR misses
system.cpu0.icache.demand_mshr_misses::total        11105                       # number of demand (read+write) MSHR misses
system.cpu0.icache.overall_mshr_misses::.cpu0.inst        11105                       # number of overall MSHR misses
system.cpu0.icache.overall_mshr_misses::total        11105                       # number of overall MSHR misses
system.cpu0.icache.demand_mshr_miss_latency::.cpu0.inst    267809000                       # number of demand (read+write) MSHR miss cycles
system.cpu0.icache.demand_mshr_miss_latency::total    267809000                       # number of demand (read+write) MSHR miss cycles
system.cpu0.icache.overall_mshr_miss_latency::.cpu0.inst    267809000                       # number of overall MSHR miss cycles
system.cpu0.icache.overall_mshr_miss_latency::total    267809000                       # number of overall MSHR miss cycles
system.cpu0.icache.demand_mshr_miss_rate::.cpu0.inst     0.004801                       # mshr miss rate for demand accesses
system.cpu0.icache.demand_mshr_miss_rate::total     0.004801                       # mshr miss rate for demand accesses
system.cpu0.icache.overall_mshr_miss_rate::.cpu0.inst     0.004801                       # mshr miss rate for overall accesses
system.cpu0.icache.overall_mshr_miss_rate::total     0.004801                       # mshr miss rate for overall accesses
system.cpu0.icache.demand_avg_mshr_miss_latency::.cpu0.inst 24116.073841                       # average overall mshr miss latency
system.cpu0.icache.demand_avg_mshr_miss_latency::total 24116.073841                       # average overall mshr miss latency
system.cpu0.icache.overall_avg_mshr_miss_latency::.cpu0.inst 24116.073841                       # average overall mshr miss latency
system.cpu0.icache.overall_avg_mshr_miss_latency::total 24116.073841                       # average overall mshr miss latency
system.cpu0.icache.replacements                 11089                       # number of replacements
system.cpu0.icache.ReadReq_hits::.cpu0.inst      2302146                       # number of ReadReq hits
system.cpu0.icache.ReadReq_hits::total        2302146                       # number of ReadReq hits
system.cpu0.icache.ReadReq_misses::.cpu0.inst        11105                       # number of ReadReq misses
system.cpu0.icache.ReadReq_misses::total        11105                       # number of ReadReq misses
system.cpu0.icache.ReadReq_miss_latency::.cpu0.inst    278914000                       # number of ReadReq miss cycles
system.cpu0.icache.ReadReq_miss_latency::total    278914000                       # number of ReadReq miss cycles
system.cpu0.icache.ReadReq_accesses::.cpu0.inst      2313251                       # number of ReadReq accesses(hits+misses)
system.cpu0.icache.ReadReq_accesses::total      2313251                       # number of ReadReq accesses(hits+misses)
system.cpu0.icache.ReadReq_miss_rate::.cpu0.inst     0.004801                       # miss rate for ReadReq accesses
system.cpu0.icache.ReadReq_miss_rate::total     0.004801                       # miss rate for ReadReq accesses
system.cpu0.icache.ReadReq_avg_miss_latency::.cpu0.inst 25116.073841                       # average ReadReq miss latency
system.cpu0.icache.ReadReq_avg_miss_latency::total 25116.073841                       # average ReadReq miss latency
system.cpu0.icache.ReadReq_mshr_misses::.cpu0.inst        11105                       # number of ReadReq MSHR misses
system.cpu0.icache.ReadReq_mshr_misses::total        11105                       # number of ReadReq MSHR misses
system.cpu0.icache.ReadReq_mshr_miss_latency::.cpu0.inst    267809000                       # number of ReadReq MSHR miss cycles
system.cpu0.icache.ReadReq_mshr_miss_latency::total    267809000                       # number of ReadReq MSHR miss cycles
system.cpu0.icache.ReadReq_mshr_miss_rate::.cpu0.inst     0.004801                       # mshr miss rate for ReadReq accesses
system.cpu0.icache.ReadReq_mshr_miss_rate::total     0.004801                       # mshr miss rate for ReadReq accesses
system.cpu0.icache.ReadReq_avg_mshr_miss_latency::.cpu0.inst 24116.073841                       # average ReadReq mshr miss latency
system.cpu0.icache.ReadReq_avg_mshr_miss_latency::total 24116.073841                       # average ReadReq mshr miss latency
system.cpu0.icache.power_state.pwrStateResidencyTicks::UNDEFINED  57873909500                       # Cumulative time (in ticks) in various power states
system.cpu0.icache.tags.tagsinuse           15.999760                       # Cycle average of tags in use
system.cpu0.icache.tags.total_refs            2313251                       # Total number of references to valid blocks.
system.cpu0.icache.tags.sampled_refs            11105                       # Sample count of references to valid blocks.
system.cpu0.icache.tags.avg_refs           208.307159                       # Average number of references to valid blocks.
system.cpu0.icache.tags.warmup_cycle            87500                       # Cycle when the warmup percentage was hit.
system.cpu0.icache.tags.occ_blocks::.cpu0.inst    15.999760                       # Average occupied blocks per requestor
system.cpu0.icache.tags.occ_percent::.cpu0.inst     0.999985                       # Average percentage of cache occupancy
system.cpu0.icache.tags.occ_percent::total     0.999985                       # Average percentage of cache occupancy
system.cpu0.icache.tags.occ_task_id_blocks::1024           16                       # Occupied blocks per task id
system.cpu0.icache.tags.age_task_id_blocks_1024::4           16                       # Occupied blocks per task id
system.cpu0.icache.tags.occ_task_id_percent::1024            1                       # Percentage of cache occupancy per task id
system.cpu0.icache.tags.tag_accesses         18517113                       # Number of tag accesses
system.cpu0.icache.tags.data_accesses        18517113                       # Number of data accesses
system.cpu0.icache.tags.power_state.pwrStateResidencyTicks::UNDEFINED  57873909500                       # Cumulative time (in ticks) in various power states
system.cpu0.dtb.walker.power_state.pwrStateResidencyTicks::UNDEFINED  57873909500                       # Cumulative time (in ticks) in various power states
system.cpu0.interrupts.clk_domain.clock          8000                       # Clock period in ticks
system.cpu0.itb_walker_cache.blocked_cycles::no_mshrs            0                       # number of cycles access was blocked
system.cpu0.itb_walker_cache.blocked_cycles::no_targets            0                       # number of cycles access was blocked
system.cpu0.itb_walker_cache.blocked::no_mshrs            0                       # number of cycles access was blocked
system.cpu0.itb_walker_cache.blocked::no_targets            0                       # number of cycles access was blocked
system.cpu0.itb_walker_cache.avg_blocked_cycles::no_mshrs          nan                       # average number of cycles each access was blocked
system.cpu0.itb_walker_cache.avg_blocked_cycles::no_targets          nan                       # average number of cycles each access was blocked
system.cpu0.itb_walker_cache.replacements            0                       # number of replacements
system.cpu0.itb_walker_cache.power_state.pwrStateResidencyTicks::UNDEFINED  57873909500                       # Cumulative time (in ticks) in various power states
system.cpu0.itb_walker_cache.tags.tagsinuse            0                       # Cycle average of tags in use
system.cpu0.itb_walker_cache.tags.total_refs            0                       # Total number of references to valid blocks.
system.cpu0.itb_walker_cache.tags.sampled_refs            0                       # Sample count of references to valid blocks.
system.cpu0.itb_walker_cache.tags.avg_refs          nan                       # Average number of references to valid blocks.
system.cpu0.itb_walker_cache.tags.warmup_cycle            0                       # Cycle when the warmup percentage was hit.
system.cpu0.itb_walker_cache.tags.tag_accesses            0                       # Number of tag accesses
system.cpu0.itb_walker_cache.tags.data_accesses            0                       # Number of data accesses
system.cpu0.itb_walker_cache.tags.power_state.pwrStateResidencyTicks::UNDEFINED  57873909500                       # Cumulative time (in ticks) in various power states
system.cpu0.dtb_walker_cache.blocked_cycles::no_mshrs            0                       # number of cycles access was blocked
system.cpu0.dtb_walker_cache.blocked_cycles::no_targets            0                       # number of cycles access was blocked
system.cpu0.dtb_walker_cache.blocked::no_mshrs            0                       # number of cycles access was blocked
system.cpu0.dtb_walker_cache.blocked::no_targets            0                       # number of cycles access was blocked
system.cpu0.dtb_walker_cache.avg_blocked_cycles::no_mshrs          nan                       # average number of cycles each access was blocked
system.cpu0.dtb_walker_cache.avg_blocked_cycles::no_targets          nan                       # average number of cycles each access was blocked
system.cpu0.dtb_walker_cache.replacements            0                       # number of replacements
system.cpu0.dtb_walker_cache.power_state.pwrStateResidencyTicks::UNDEFINED  57873909500                       # Cumulative time (in ticks) in various power states
system.cpu0.dtb_walker_cache.tags.tagsinuse            0                       # Cycle average of tags in use
system.cpu0.dtb_walker_cache.tags.total_refs            0                       # Total number of references to valid blocks.
system.cpu0.dtb_walker_cache.tags.sampled_refs            0                       # Sample count of references to valid blocks.
system.cpu0.dtb_walker_cache.tags.avg_refs          nan                       # Average number of references to valid blocks.
system.cpu0.dtb_walker_cache.tags.warmup_cycle            0                       # Cycle when the warmup percentage was hit.
system.cpu0.dtb_walker_cache.tags.tag_accesses            0                       # Number of tag accesses
system.cpu0.dtb_walker_cache.tags.data_accesses            0                       # Number of data accesses
system.cpu0.dtb_walker_cache.tags.power_state.pwrStateResidencyTicks::UNDEFINED  57873909500                       # Cumulative time (in ticks) in various power states
system.cpu0.dcache.demand_hits::.cpu0.data      7320532                       # number of demand (read+write) hits
system.cpu0.dcache.demand_hits::total         7320532                       # number of demand (read+write) hits
system.cpu0.dcache.overall_hits::.cpu0.data      7320532                       # number of overall hits
system.cpu0.dcache.overall_hits::total        7320532                       # number of overall hits
system.cpu0.dcache.demand_misses::.cpu0.data      1465310                       # number of demand (read+write) misses
system.cpu0.dcache.demand_misses::total       1465310                       # number of demand (read+write) misses
system.cpu0.dcache.overall_misses::.cpu0.data      1465310                       # number of overall misses
system.cpu0.dcache.overall_misses::total      1465310                       # number of overall misses
system.cpu0.dcache.demand_miss_latency::.cpu0.data  99432327000                       # number of demand (read+write) miss cycles
system.cpu0.dcache.demand_miss_latency::total  99432327000                       # number of demand (read+write) miss cycles
system.cpu0.dcache.overall_miss_latency::.cpu0.data  99432327000                       # number of overall miss cycles
system.cpu0.dcache.overall_miss_latency::total  99432327000                       # number of overall miss cycles
system.cpu0.dcache.demand_accesses::.cpu0.data      8785842                       # number of demand (read+write) accesses
system.cpu0.dcache.demand_accesses::total      8785842                       # number of demand (read+write) accesses
system.cpu0.dcache.overall_accesses::.cpu0.data      8785842                       # number of overall (read+write) accesses
system.cpu0.dcache.overall_accesses::total      8785842                       # number of overall (read+write) accesses
system.cpu0.dcache.demand_miss_rate::.cpu0.data     0.166781                       # miss rate for demand accesses
system.cpu0.dcache.demand_miss_rate::total     0.166781                       # miss rate for demand accesses
system.cpu0.dcache.overall_miss_rate::.cpu0.data     0.166781                       # miss rate for overall accesses
system.cpu0.dcache.overall_miss_rate::total     0.166781                       # miss rate for overall accesses
system.cpu0.dcache.demand_avg_miss_latency::.cpu0.data 67857.536630                       # average overall miss latency
system.cpu0.dcache.demand_avg_miss_latency::total 67857.536630                       # average overall miss latency
system.cpu0.dcache.overall_avg_miss_latency::.cpu0.data 67857.536630                       # average overall miss latency
system.cpu0.dcache.overall_avg_miss_latency::total 67857.536630                       # average overall miss latency
system.cpu0.dcache.blocked_cycles::no_mshrs            0                       # number of cycles access was blocked
system.cpu0.dcache.blocked_cycles::no_targets            0                       # number of cycles access was blocked
system.cpu0.dcache.blocked::no_mshrs                0                       # number of cycles access was blocked
system.cpu0.dcache.blocked::no_targets              0                       # number of cycles access was blocked
system.cpu0.dcache.avg_blocked_cycles::no_mshrs          nan                       # average number of cycles each access was blocked
system.cpu0.dcache.avg_blocked_cycles::no_targets          nan                       # average number of cycles each access was blocked
system.cpu0.dcache.writebacks::.writebacks       912923                       # number of writebacks
system.cpu0.dcache.writebacks::total           912923                       # number of writebacks
system.cpu0.dcache.demand_mshr_hits::.cpu0.data       545728                       # number of demand (read+write) MSHR hits
system.cpu0.dcache.demand_mshr_hits::total       545728                       # number of demand (read+write) MSHR hits
system.cpu0.dcache.overall_mshr_hits::.cpu0.data       545728                       # number of overall MSHR hits
system.cpu0.dcache.overall_mshr_hits::total       545728                       # number of overall MSHR hits
system.cpu0.dcache.demand_mshr_misses::.cpu0.data       919582                       # number of demand (read+write) MSHR misses
system.cpu0.dcache.demand_mshr_misses::total       919582                       # number of demand (read+write) MSHR misses
system.cpu0.dcache.overall_mshr_misses::.cpu0.data       919582                       # number of overall MSHR misses
system.cpu0.dcache.overall_mshr_misses::total       919582                       # number of overall MSHR misses
system.cpu0.dcache.demand_mshr_miss_latency::.cpu0.data  79277204000                       # number of demand (read+write) MSHR miss cycles
system.cpu0.dcache.demand_mshr_miss_latency::total  79277204000                       # number of demand (read+write) MSHR miss cycles
system.cpu0.dcache.overall_mshr_miss_latency::.cpu0.data  79277204000                       # number of overall MSHR miss cycles
system.cpu0.dcache.overall_mshr_miss_latency::total  79277204000                       # number of overall MSHR miss cycles
system.cpu0.dcache.demand_mshr_miss_rate::.cpu0.data     0.104666                       # mshr miss rate for demand accesses
system.cpu0.dcache.demand_mshr_miss_rate::total     0.104666                       # mshr miss rate for demand accesses
system.cpu0.dcache.overall_mshr_miss_rate::.cpu0.data     0.104666                       # mshr miss rate for overall accesses
system.cpu0.dcache.overall_mshr_miss_rate::total     0.104666                       # mshr miss rate for overall accesses
system.cpu0.dcache.demand_avg_mshr_miss_latency::.cpu0.data 86210.043259                       # average overall mshr miss latency
system.cpu0.dcache.demand_avg_mshr_miss_latency::total 86210.043259                       # average overall mshr miss latency
system.cpu0.dcache.overall_avg_mshr_miss_latency::.cpu0.data 86210.043259                       # average overall mshr miss latency
system.cpu0.dcache.overall_avg_mshr_miss_latency::total 86210.043259                       # average overall mshr miss latency
system.cpu0.dcache.replacements                919565                       # number of replacements
system.cpu0.dcache.ReadReq_hits::.cpu0.data      1495635                       # number of ReadReq hits
system.cpu0.dcache.ReadReq_hits::total        1495635                       # number of ReadReq hits
system.cpu0.dcache.ReadReq_misses::.cpu0.data         9375                       # number of ReadReq misses
system.cpu0.dcache.ReadReq_misses::total         9375                       # number of ReadReq misses
system.cpu0.dcache.ReadReq_miss_latency::.cpu0.data    335179000                       # number of ReadReq miss cycles
system.cpu0.dcache.ReadReq_miss_latency::total    335179000                       # number of ReadReq miss cycles
system.cpu0.dcache.ReadReq_accesses::.cpu0.data      1505010                       # number of ReadReq accesses(hits+misses)
system.cpu0.dcache.ReadReq_accesses::total      1505010                       # number of ReadReq accesses(hits+misses)
system.cpu0.dcache.ReadReq_miss_rate::.cpu0.data     0.006229                       # miss rate for ReadReq accesses
system.cpu0.dcache.ReadReq_miss_rate::total     0.006229                       # miss rate for ReadReq accesses
system.cpu0.dcache.ReadReq_avg_miss_latency::.cpu0.data 35752.426667                       # average ReadReq miss latency
system.cpu0.dcache.ReadReq_avg_miss_latency::total 35752.426667                       # average ReadReq miss latency
system.cpu0.dcache.ReadReq_mshr_hits::.cpu0.data          333                       # number of ReadReq MSHR hits
system.cpu0.dcache.ReadReq_mshr_hits::total          333                       # number of ReadReq MSHR hits
system.cpu0.dcache.ReadReq_mshr_misses::.cpu0.data         9042                       # number of ReadReq MSHR misses
system.cpu0.dcache.ReadReq_mshr_misses::total         9042                       # number of ReadReq MSHR misses
system.cpu0.dcache.ReadReq_mshr_miss_latency::.cpu0.data    311817500                       # number of ReadReq MSHR miss cycles
system.cpu0.dcache.ReadReq_mshr_miss_latency::total    311817500                       # number of ReadReq MSHR miss cycles
system.cpu0.dcache.ReadReq_mshr_miss_rate::.cpu0.data     0.006008                       # mshr miss rate for ReadReq accesses
system.cpu0.dcache.ReadReq_mshr_miss_rate::total     0.006008                       # mshr miss rate for ReadReq accesses
system.cpu0.dcache.ReadReq_avg_mshr_miss_latency::.cpu0.data 34485.456757                       # average ReadReq mshr miss latency
system.cpu0.dcache.ReadReq_avg_mshr_miss_latency::total 34485.456757                       # average ReadReq mshr miss latency
system.cpu0.dcache.WriteReq_hits::.cpu0.data      5824897                       # number of WriteReq hits
system.cpu0.dcache.WriteReq_hits::total       5824897                       # number of WriteReq hits
system.cpu0.dcache.WriteReq_misses::.cpu0.data      1455935                       # number of WriteReq misses
system.cpu0.dcache.WriteReq_misses::total      1455935                       # number of WriteReq misses
system.cpu0.dcache.WriteReq_miss_latency::.cpu0.data  99097148000                       # number of WriteReq miss cycles
system.cpu0.dcache.WriteReq_miss_latency::total  99097148000                       # number of WriteReq miss cycles
system.cpu0.dcache.WriteReq_accesses::.cpu0.data      7280832                       # number of WriteReq accesses(hits+misses)
system.cpu0.dcache.WriteReq_accesses::total      7280832                       # number of WriteReq accesses(hits+misses)
system.cpu0.dcache.WriteReq_miss_rate::.cpu0.data     0.199968                       # miss rate for WriteReq accesses
system.cpu0.dcache.WriteReq_miss_rate::total     0.199968                       # miss rate for WriteReq accesses
system.cpu0.dcache.WriteReq_avg_miss_latency::.cpu0.data 68064.266605                       # average WriteReq miss latency
system.cpu0.dcache.WriteReq_avg_miss_latency::total 68064.266605                       # average WriteReq miss latency
system.cpu0.dcache.WriteReq_mshr_hits::.cpu0.data       545395                       # number of WriteReq MSHR hits
system.cpu0.dcache.WriteReq_mshr_hits::total       545395                       # number of WriteReq MSHR hits
system.cpu0.dcache.WriteReq_mshr_misses::.cpu0.data       910540                       # number of WriteReq MSHR misses
system.cpu0.dcache.WriteReq_mshr_misses::total       910540                       # number of WriteReq MSHR misses
system.cpu0.dcache.WriteReq_mshr_miss_latency::.cpu0.data  78965386500                       # number of WriteReq MSHR miss cycles
system.cpu0.dcache.WriteReq_mshr_miss_latency::total  78965386500                       # number of WriteReq MSHR miss cycles
system.cpu0.dcache.WriteReq_mshr_miss_rate::.cpu0.data     0.125060                       # mshr miss rate for WriteReq accesses
system.cpu0.dcache.WriteReq_mshr_miss_rate::total     0.125060                       # mshr miss rate for WriteReq accesses
system.cpu0.dcache.WriteReq_avg_mshr_miss_latency::.cpu0.data 86723.687592                       # average WriteReq mshr miss latency
system.cpu0.dcache.WriteReq_avg_mshr_miss_latency::total 86723.687592                       # average WriteReq mshr miss latency
system.cpu0.dcache.power_state.pwrStateResidencyTicks::UNDEFINED  57873909500                       # Cumulative time (in ticks) in various power states
system.cpu0.dcache.tags.tagsinuse           15.999775                       # Cycle average of tags in use
system.cpu0.dcache.tags.total_refs            8240113                       # Total number of references to valid blocks.
system.cpu0.dcache.tags.sampled_refs           919581                       # Sample count of references to valid blocks.
system.cpu0.dcache.tags.avg_refs             8.960726                       # Average number of references to valid blocks.
system.cpu0.dcache.tags.warmup_cycle           178500                       # Cycle when the warmup percentage was hit.
system.cpu0.dcache.tags.occ_blocks::.cpu0.data    15.999775                       # Average occupied blocks per requestor
system.cpu0.dcache.tags.occ_percent::.cpu0.data     0.999986                       # Average percentage of cache occupancy
system.cpu0.dcache.tags.occ_percent::total     0.999986                       # Average percentage of cache occupancy
system.cpu0.dcache.tags.occ_task_id_blocks::1024           16                       # Occupied blocks per task id
system.cpu0.dcache.tags.age_task_id_blocks_1024::0           14                       # Occupied blocks per task id
system.cpu0.dcache.tags.age_task_id_blocks_1024::4            2                       # Occupied blocks per task id
system.cpu0.dcache.tags.occ_task_id_percent::1024            1                       # Percentage of cache occupancy per task id
system.cpu0.dcache.tags.tag_accesses         71206317                       # Number of tag accesses
system.cpu0.dcache.tags.data_accesses        71206317                       # Number of data accesses
system.cpu0.dcache.tags.power_state.pwrStateResidencyTicks::UNDEFINED  57873909500                       # Cumulative time (in ticks) in various power states
system.cpu0.power_state.pwrStateResidencyTicks::ON  57873909500                       # Cumulative time (in ticks) in various power states
system.cpu0.itb.walker.power_state.pwrStateResidencyTicks::UNDEFINED  57873909500                       # Cumulative time (in ticks) in various power states
system.cpu1.icache.demand_hits::.cpu1.inst      1953133                       # number of demand (read+write) hits
system.cpu1.icache.demand_hits::total         1953133                       # number of demand (read+write) hits
system.cpu1.icache.overall_hits::.cpu1.inst      1953133                       # number of overall hits
system.cpu1.icache.overall_hits::total        1953133                       # number of overall hits
system.cpu1.icache.demand_misses::.cpu1.inst         8888                       # number of demand (read+write) misses
system.cpu1.icache.demand_misses::total          8888                       # number of demand (read+write) misses
system.cpu1.icache.overall_misses::.cpu1.inst         8888                       # number of overall misses
system.cpu1.icache.overall_misses::total         8888                       # number of overall misses
system.cpu1.icache.demand_miss_latency::.cpu1.inst    245190500                       # number of demand (read+write) miss cycles
system.cpu1.icache.demand_miss_latency::total    245190500                       # number of demand (read+write) miss cycles
system.cpu1.icache.overall_miss_latency::.cpu1.inst    245190500                       # number of overall miss cycles
system.cpu1.icache.overall_miss_latency::total    245190500                       # number of overall miss cycles
system.cpu1.icache.demand_accesses::.cpu1.inst      1962021                       # number of demand (read+write) accesses
system.cpu1.icache.demand_accesses::total      1962021                       # number of demand (read+write) accesses
system.cpu1.icache.overall_accesses::.cpu1.inst      1962021                       # number of overall (read+write) accesses
system.cpu1.icache.overall_accesses::total      1962021                       # number of overall (read+write) accesses
system.cpu1.icache.demand_miss_rate::.cpu1.inst     0.004530                       # miss rate for demand accesses
system.cpu1.icache.demand_miss_rate::total     0.004530                       # miss rate for demand accesses
system.cpu1.icache.overall_miss_rate::.cpu1.inst     0.004530                       # miss rate for overall accesses
system.cpu1.icache.overall_miss_rate::total     0.004530                       # miss rate for overall accesses
system.cpu1.icache.demand_avg_miss_latency::.cpu1.inst 27586.689919                       # average overall miss latency
system.cpu1.icache.demand_avg_miss_latency::total 27586.689919                       # average overall miss latency
system.cpu1.icache.overall_avg_miss_latency::.cpu1.inst 27586.689919                       # average overall miss latency
system.cpu1.icache.overall_avg_miss_latency::total 27586.689919                       # average overall miss latency
system.cpu1.icache.blocked_cycles::no_mshrs            0                       # number of cycles access was blocked
system.cpu1.icache.blocked_cycles::no_targets            0                       # number of cycles access was blocked
system.cpu1.icache.blocked::no_mshrs                0                       # number of cycles access was blocked
system.cpu1.icache.blocked::no_targets              0                       # number of cycles access was blocked
system.cpu1.icache.avg_blocked_cycles::no_mshrs          nan                       # average number of cycles each access was blocked
system.cpu1.icache.avg_blocked_cycles::no_targets          nan                       # average number of cycles each access was blocked
system.cpu1.icache.writebacks::.writebacks         8872                       # number of writebacks
system.cpu1.icache.writebacks::total             8872                       # number of writebacks
system.cpu1.icache.demand_mshr_misses::.cpu1.inst         8888                       # number of demand (read+write) MSHR misses
system.cpu1.icache.demand_mshr_misses::total         8888                       # number of demand (read+write) MSHR misses
system.cpu1.icache.overall_mshr_misses::.cpu1.inst         8888                       # number of overall MSHR misses
system.cpu1.icache.overall_mshr_misses::total         8888                       # number of overall MSHR misses
system.cpu1.icache.demand_mshr_miss_latency::.cpu1.inst    236302500                       # number of demand (read+write) MSHR miss cycles
system.cpu1.icache.demand_mshr_miss_latency::total    236302500                       # number of demand (read+write) MSHR miss cycles
system.cpu1.icache.overall_mshr_miss_latency::.cpu1.inst    236302500                       # number of overall MSHR miss cycles
system.cpu1.icache.overall_mshr_miss_latency::total    236302500                       # number of overall MSHR miss cycles
system.cpu1.icache.demand_mshr_miss_rate::.cpu1.inst     0.004530                       # mshr miss rate for demand accesses
system.cpu1.icache.demand_mshr_miss_rate::total     0.004530                       # mshr miss rate for demand accesses
system.cpu1.icache.overall_mshr_miss_rate::.cpu1.inst     0.004530                       # mshr miss rate for overall accesses
system.cpu1.icache.overall_mshr_miss_rate::total     0.004530                       # mshr miss rate for overall accesses
system.cpu1.icache.demand_avg_mshr_miss_latency::.cpu1.inst 26586.689919                       # average overall mshr miss latency
system.cpu1.icache.demand_avg_mshr_miss_latency::total 26586.689919                       # average overall mshr miss latency
system.cpu1.icache.overall_avg_mshr_miss_latency::.cpu1.inst 26586.689919                       # average overall mshr miss latency
system.cpu1.icache.overall_avg_mshr_miss_latency::total 26586.689919                       # average overall mshr miss latency
system.cpu1.icache.replacements                  8872                       # number of replacements
system.cpu1.icache.ReadReq_hits::.cpu1.inst      1953133                       # number of ReadReq hits
system.cpu1.icache.ReadReq_hits::total        1953133                       # number of ReadReq hits
system.cpu1.icache.ReadReq_misses::.cpu1.inst         8888                       # number of ReadReq misses
system.cpu1.icache.ReadReq_misses::total         8888                       # number of ReadReq misses
system.cpu1.icache.ReadReq_miss_latency::.cpu1.inst    245190500                       # number of ReadReq miss cycles
system.cpu1.icache.ReadReq_miss_latency::total    245190500                       # number of ReadReq miss cycles
system.cpu1.icache.ReadReq_accesses::.cpu1.inst      1962021                       # number of ReadReq accesses(hits+misses)
system.cpu1.icache.ReadReq_accesses::total      1962021                       # number of ReadReq accesses(hits+misses)
system.cpu1.icache.ReadReq_miss_rate::.cpu1.inst     0.004530                       # miss rate for ReadReq accesses
system.cpu1.icache.ReadReq_miss_rate::total     0.004530                       # miss rate for ReadReq accesses
system.cpu1.icache.ReadReq_avg_miss_latency::.cpu1.inst 27586.689919                       # average ReadReq miss latency
system.cpu1.icache.ReadReq_avg_miss_latency::total 27586.689919                       # average ReadReq miss latency
system.cpu1.icache.ReadReq_mshr_misses::.cpu1.inst         8888                       # number of ReadReq MSHR misses
system.cpu1.icache.ReadReq_mshr_misses::total         8888                       # number of ReadReq MSHR misses
system.cpu1.icache.ReadReq_mshr_miss_latency::.cpu1.inst    236302500                       # number of ReadReq MSHR miss cycles
system.cpu1.icache.ReadReq_mshr_miss_latency::total    236302500                       # number of ReadReq MSHR miss cycles
system.cpu1.icache.ReadReq_mshr_miss_rate::.cpu1.inst     0.004530                       # mshr miss rate for ReadReq accesses
system.cpu1.icache.ReadReq_mshr_miss_rate::total     0.004530                       # mshr miss rate for ReadReq accesses
system.cpu1.icache.ReadReq_avg_mshr_miss_latency::.cpu1.inst 26586.689919                       # average ReadReq mshr miss latency
system.cpu1.icache.ReadReq_avg_mshr_miss_latency::total 26586.689919                       # average ReadReq mshr miss latency
system.cpu1.icache.power_state.pwrStateResidencyTicks::UNDEFINED  57873909500                       # Cumulative time (in ticks) in various power states
system.cpu1.icache.tags.tagsinuse           15.999750                       # Cycle average of tags in use
system.cpu1.icache.tags.total_refs            1962021                       # Total number of references to valid blocks.
system.cpu1.icache.tags.sampled_refs             8888                       # Sample count of references to valid blocks.
system.cpu1.icache.tags.avg_refs           220.749437                       # Average number of references to valid blocks.
system.cpu1.icache.tags.warmup_cycle            92500                       # Cycle when the warmup percentage was hit.
system.cpu1.icache.tags.occ_blocks::.cpu1.inst    15.999750                       # Average occupied blocks per requestor
system.cpu1.icache.tags.occ_percent::.cpu1.inst     0.999984                       # Average percentage of cache occupancy
system.cpu1.icache.tags.occ_percent::total     0.999984                       # Average percentage of cache occupancy
system.cpu1.icache.tags.occ_task_id_blocks::1024           16                       # Occupied blocks per task id
system.cpu1.icache.tags.age_task_id_blocks_1024::4           16                       # Occupied blocks per task id
system.cpu1.icache.tags.occ_task_id_percent::1024            1                       # Percentage of cache occupancy per task id
system.cpu1.icache.tags.tag_accesses         15705056                       # Number of tag accesses
system.cpu1.icache.tags.data_accesses        15705056                       # Number of data accesses
system.cpu1.icache.tags.power_state.pwrStateResidencyTicks::UNDEFINED  57873909500                       # Cumulative time (in ticks) in various power states
system.cpu1.dtb.walker.power_state.pwrStateResidencyTicks::UNDEFINED  57873909500                       # Cumulative time (in ticks) in various power states
system.cpu1.interrupts.clk_domain.clock          8000                       # Clock period in ticks
system.cpu1.itb_walker_cache.blocked_cycles::no_mshrs            0                       # number of cycles access was blocked
system.cpu1.itb_walker_cache.blocked_cycles::no_targets            0                       # number of cycles access was blocked
system.cpu1.itb_walker_cache.blocked::no_mshrs            0                       # number of cycles access was blocked
system.cpu1.itb_walker_cache.blocked::no_targets            0                       # number of cycles access was blocked
system.cpu1.itb_walker_cache.avg_blocked_cycles::no_mshrs          nan                       # average number of cycles each access was blocked
system.cpu1.itb_walker_cache.avg_blocked_cycles::no_targets          nan                       # average number of cycles each access was blocked
system.cpu1.itb_walker_cache.replacements            0                       # number of replacements
system.cpu1.itb_walker_cache.power_state.pwrStateResidencyTicks::UNDEFINED  57873909500                       # Cumulative time (in ticks) in various power states
system.cpu1.itb_walker_cache.tags.tagsinuse            0                       # Cycle average of tags in use
system.cpu1.itb_walker_cache.tags.total_refs            0                       # Total number of references to valid blocks.
system.cpu1.itb_walker_cache.tags.sampled_refs            0                       # Sample count of references to valid blocks.
system.cpu1.itb_walker_cache.tags.avg_refs          nan                       # Average number of references to valid blocks.
system.cpu1.itb_walker_cache.tags.warmup_cycle            0                       # Cycle when the warmup percentage was hit.
system.cpu1.itb_walker_cache.tags.tag_accesses            0                       # Number of tag accesses
system.cpu1.itb_walker_cache.tags.data_accesses            0                       # Number of data accesses
system.cpu1.itb_walker_cache.tags.power_state.pwrStateResidencyTicks::UNDEFINED  57873909500                       # Cumulative time (in ticks) in various power states
system.cpu1.dtb_walker_cache.blocked_cycles::no_mshrs            0                       # number of cycles access was blocked
system.cpu1.dtb_walker_cache.blocked_cycles::no_targets            0                       # number of cycles access was blocked
system.cpu1.dtb_walker_cache.blocked::no_mshrs            0                       # number of cycles access was blocked
system.cpu1.dtb_walker_cache.blocked::no_targets            0                       # number of cycles access was blocked
system.cpu1.dtb_walker_cache.avg_blocked_cycles::no_mshrs          nan                       # average number of cycles each access was blocked
system.cpu1.dtb_walker_cache.avg_blocked_cycles::no_targets          nan                       # average number of cycles each access was blocked
system.cpu1.dtb_walker_cache.replacements            0                       # number of replacements
system.cpu1.dtb_walker_cache.power_state.pwrStateResidencyTicks::UNDEFINED  57873909500                       # Cumulative time (in ticks) in various power states
system.cpu1.dtb_walker_cache.tags.tagsinuse            0                       # Cycle average of tags in use
system.cpu1.dtb_walker_cache.tags.total_refs            0                       # Total number of references to valid blocks.
system.cpu1.dtb_walker_cache.tags.sampled_refs            0                       # Sample count of references to valid blocks.
system.cpu1.dtb_walker_cache.tags.avg_refs          nan                       # Average number of references to valid blocks.
system.cpu1.dtb_walker_cache.tags.warmup_cycle            0                       # Cycle when the warmup percentage was hit.
system.cpu1.dtb_walker_cache.tags.tag_accesses            0                       # Number of tag accesses
system.cpu1.dtb_walker_cache.tags.data_accesses            0                       # Number of data accesses
system.cpu1.dtb_walker_cache.tags.power_state.pwrStateResidencyTicks::UNDEFINED  57873909500                       # Cumulative time (in ticks) in various power states
system.cpu1.dcache.demand_hits::.cpu1.data      4339113                       # number of demand (read+write) hits
system.cpu1.dcache.demand_hits::total         4339113                       # number of demand (read+write) hits
system.cpu1.dcache.overall_hits::.cpu1.data      4339113                       # number of overall hits
system.cpu1.dcache.overall_hits::total        4339113                       # number of overall hits
system.cpu1.dcache.demand_misses::.cpu1.data      1181375                       # number of demand (read+write) misses
system.cpu1.dcache.demand_misses::total       1181375                       # number of demand (read+write) misses
system.cpu1.dcache.overall_misses::.cpu1.data      1181375                       # number of overall misses
system.cpu1.dcache.overall_misses::total      1181375                       # number of overall misses
system.cpu1.dcache.demand_miss_latency::.cpu1.data 104002319500                       # number of demand (read+write) miss cycles
system.cpu1.dcache.demand_miss_latency::total 104002319500                       # number of demand (read+write) miss cycles
system.cpu1.dcache.overall_miss_latency::.cpu1.data 104002319500                       # number of overall miss cycles
system.cpu1.dcache.overall_miss_latency::total 104002319500                       # number of overall miss cycles
system.cpu1.dcache.demand_accesses::.cpu1.data      5520488                       # number of demand (read+write) accesses
system.cpu1.dcache.demand_accesses::total      5520488                       # number of demand (read+write) accesses
system.cpu1.dcache.overall_accesses::.cpu1.data      5520488                       # number of overall (read+write) accesses
system.cpu1.dcache.overall_accesses::total      5520488                       # number of overall (read+write) accesses
system.cpu1.dcache.demand_miss_rate::.cpu1.data     0.213998                       # miss rate for demand accesses
system.cpu1.dcache.demand_miss_rate::total     0.213998                       # miss rate for demand accesses
system.cpu1.dcache.overall_miss_rate::.cpu1.data     0.213998                       # miss rate for overall accesses
system.cpu1.dcache.overall_miss_rate::total     0.213998                       # miss rate for overall accesses
system.cpu1.dcache.demand_avg_miss_latency::.cpu1.data 88034.975770                       # average overall miss latency
system.cpu1.dcache.demand_avg_miss_latency::total 88034.975770                       # average overall miss latency
system.cpu1.dcache.overall_avg_miss_latency::.cpu1.data 88034.975770                       # average overall miss latency
system.cpu1.dcache.overall_avg_miss_latency::total 88034.975770                       # average overall miss latency
system.cpu1.dcache.blocked_cycles::no_mshrs            0                       # number of cycles access was blocked
system.cpu1.dcache.blocked_cycles::no_targets            0                       # number of cycles access was blocked
system.cpu1.dcache.blocked::no_mshrs                0                       # number of cycles access was blocked
system.cpu1.dcache.blocked::no_targets              0                       # number of cycles access was blocked
system.cpu1.dcache.avg_blocked_cycles::no_mshrs          nan                       # average number of cycles each access was blocked
system.cpu1.dcache.avg_blocked_cycles::no_targets          nan                       # average number of cycles each access was blocked
system.cpu1.dcache.writebacks::.writebacks       585545                       # number of writebacks
system.cpu1.dcache.writebacks::total           585545                       # number of writebacks
system.cpu1.dcache.demand_mshr_hits::.cpu1.data       581472                       # number of demand (read+write) MSHR hits
system.cpu1.dcache.demand_mshr_hits::total       581472                       # number of demand (read+write) MSHR hits
system.cpu1.dcache.overall_mshr_hits::.cpu1.data       581472                       # number of overall MSHR hits
system.cpu1.dcache.overall_mshr_hits::total       581472                       # number of overall MSHR hits
system.cpu1.dcache.demand_mshr_misses::.cpu1.data       599903                       # number of demand (read+write) MSHR misses
system.cpu1.dcache.demand_mshr_misses::total       599903                       # number of demand (read+write) MSHR misses
system.cpu1.dcache.overall_mshr_misses::.cpu1.data       599903                       # number of overall MSHR misses
system.cpu1.dcache.overall_mshr_misses::total       599903                       # number of overall MSHR misses
system.cpu1.dcache.demand_mshr_miss_latency::.cpu1.data  51606289000                       # number of demand (read+write) MSHR miss cycles
system.cpu1.dcache.demand_mshr_miss_latency::total  51606289000                       # number of demand (read+write) MSHR miss cycles
system.cpu1.dcache.overall_mshr_miss_latency::.cpu1.data  51606289000                       # number of overall MSHR miss cycles
system.cpu1.dcache.overall_mshr_miss_latency::total  51606289000                       # number of overall MSHR miss cycles
system.cpu1.dcache.demand_mshr_miss_rate::.cpu1.data     0.108668                       # mshr miss rate for demand accesses
system.cpu1.dcache.demand_mshr_miss_rate::total     0.108668                       # mshr miss rate for demand accesses
system.cpu1.dcache.overall_mshr_miss_rate::.cpu1.data     0.108668                       # mshr miss rate for overall accesses
system.cpu1.dcache.overall_mshr_miss_rate::total     0.108668                       # mshr miss rate for overall accesses
system.cpu1.dcache.demand_avg_mshr_miss_latency::.cpu1.data 86024.388943                       # average overall mshr miss latency
system.cpu1.dcache.demand_avg_mshr_miss_latency::total 86024.388943                       # average overall mshr miss latency
system.cpu1.dcache.overall_avg_mshr_miss_latency::.cpu1.data 86024.388943                       # average overall mshr miss latency
system.cpu1.dcache.overall_avg_mshr_miss_latency::total 86024.388943                       # average overall mshr miss latency
system.cpu1.dcache.replacements                599886                       # number of replacements
system.cpu1.dcache.ReadReq_hits::.cpu1.data       766520                       # number of ReadReq hits
system.cpu1.dcache.ReadReq_hits::total         766520                       # number of ReadReq hits
system.cpu1.dcache.ReadReq_misses::.cpu1.data        16406                       # number of ReadReq misses
system.cpu1.dcache.ReadReq_misses::total        16406                       # number of ReadReq misses
system.cpu1.dcache.ReadReq_miss_latency::.cpu1.data    437781000                       # number of ReadReq miss cycles
system.cpu1.dcache.ReadReq_miss_latency::total    437781000                       # number of ReadReq miss cycles
system.cpu1.dcache.ReadReq_accesses::.cpu1.data       782926                       # number of ReadReq accesses(hits+misses)
system.cpu1.dcache.ReadReq_accesses::total       782926                       # number of ReadReq accesses(hits+misses)
system.cpu1.dcache.ReadReq_miss_rate::.cpu1.data     0.020955                       # miss rate for ReadReq accesses
system.cpu1.dcache.ReadReq_miss_rate::total     0.020955                       # miss rate for ReadReq accesses
system.cpu1.dcache.ReadReq_avg_miss_latency::.cpu1.data 26684.200902                       # average ReadReq miss latency
system.cpu1.dcache.ReadReq_avg_miss_latency::total 26684.200902                       # average ReadReq miss latency
system.cpu1.dcache.ReadReq_mshr_hits::.cpu1.data          303                       # number of ReadReq MSHR hits
system.cpu1.dcache.ReadReq_mshr_hits::total          303                       # number of ReadReq MSHR hits
system.cpu1.dcache.ReadReq_mshr_misses::.cpu1.data        16103                       # number of ReadReq MSHR misses
system.cpu1.dcache.ReadReq_mshr_misses::total        16103                       # number of ReadReq MSHR misses
system.cpu1.dcache.ReadReq_mshr_miss_latency::.cpu1.data    408489500                       # number of ReadReq MSHR miss cycles
system.cpu1.dcache.ReadReq_mshr_miss_latency::total    408489500                       # number of ReadReq MSHR miss cycles
system.cpu1.dcache.ReadReq_mshr_miss_rate::.cpu1.data     0.020568                       # mshr miss rate for ReadReq accesses
system.cpu1.dcache.ReadReq_mshr_miss_rate::total     0.020568                       # mshr miss rate for ReadReq accesses
system.cpu1.dcache.ReadReq_avg_mshr_miss_latency::.cpu1.data 25367.291809                       # average ReadReq mshr miss latency
system.cpu1.dcache.ReadReq_avg_mshr_miss_latency::total 25367.291809                       # average ReadReq mshr miss latency
system.cpu1.dcache.WriteReq_hits::.cpu1.data      3572593                       # number of WriteReq hits
system.cpu1.dcache.WriteReq_hits::total       3572593                       # number of WriteReq hits
system.cpu1.dcache.WriteReq_misses::.cpu1.data      1164969                       # number of WriteReq misses
system.cpu1.dcache.WriteReq_misses::total      1164969                       # number of WriteReq misses
system.cpu1.dcache.WriteReq_miss_latency::.cpu1.data 103564538500                       # number of WriteReq miss cycles
system.cpu1.dcache.WriteReq_miss_latency::total 103564538500                       # number of WriteReq miss cycles
system.cpu1.dcache.WriteReq_accesses::.cpu1.data      4737562                       # number of WriteReq accesses(hits+misses)
system.cpu1.dcache.WriteReq_accesses::total      4737562                       # number of WriteReq accesses(hits+misses)
[...]
system.mem_ctrls.bytesPerActivate::0-127         4508      2.17%      2.17% # Bytes accessed per row activation
system.mem_ctrls.bytesPerActivate::128-255         6298      3.03%      5.19% # Bytes accessed per row activation
system.mem_ctrls.bytesPerActivate::256-383         5343      2.57%      7.76% # Bytes accessed per row activation
system.mem_ctrls.bytesPerActivate::384-511         4891      2.35%     10.11% # Bytes accessed per row activation
system.mem_ctrls.bytesPerActivate::512-639         4409      2.12%     12.23% # Bytes accessed per row activation
system.mem_ctrls.bytesPerActivate::640-767         5054      2.43%     14.66% # Bytes accessed per row activation
system.mem_ctrls.bytesPerActivate::768-895         4576      2.20%     16.86% # Bytes accessed per row activation
system.mem_ctrls.bytesPerActivate::896-1023         5019      2.41%     19.27% # Bytes accessed per row activation
system.mem_ctrls.bytesPerActivate::1024-1151       167981     80.73%    100.00% # Bytes accessed per row activation
system.mem_ctrls.bytesPerActivate::total       208079                       # Bytes accessed per row activation
system.mem_ctrls.rdPerTurnAround::samples        92743                       # Reads before turning the bus around for writes
system.mem_ctrls.rdPerTurnAround::mean      16.140571                       # Reads before turning the bus around for writes
system.mem_ctrls.rdPerTurnAround::gmean     16.058349                       # Reads before turning the bus around for writes
system.mem_ctrls.rdPerTurnAround::stdev      3.954509                       # Reads before turning the bus around for writes
system.mem_ctrls.rdPerTurnAround::0-31          92628     99.88%     99.88% # Reads before turning the bus around for writes
system.mem_ctrls.rdPerTurnAround::32-63            52      0.06%     99.93% # Reads before turning the bus around for writes
system.mem_ctrls.rdPerTurnAround::64-95            36      0.04%     99.97% # Reads before turning the bus around for writes
system.mem_ctrls.rdPerTurnAround::96-127           17      0.02%     99.99% # Reads before turning the bus around for writes
system.mem_ctrls.rdPerTurnAround::128-159            1      0.00%     99.99% # Reads before turning the bus around for writes
system.mem_ctrls.rdPerTurnAround::160-191            4      0.00%     99.99% # Reads before turning the bus around for writes
system.mem_ctrls.rdPerTurnAround::192-223            1      0.00%    100.00% # Reads before turning the bus around for writes
system.mem_ctrls.rdPerTurnAround::224-255            1      0.00%    100.00% # Reads before turning the bus around for writes
system.mem_ctrls.rdPerTurnAround::256-287            2      0.00%    100.00% # Reads before turning the bus around for writes
system.mem_ctrls.rdPerTurnAround::832-863            1      0.00%    100.00% # Reads before turning the bus around for writes
system.mem_ctrls.rdPerTurnAround::total         92743                       # Reads before turning the bus around for writes
system.mem_ctrls.wrPerTurnAround::samples        92743                       # Writes before turning the bus around for reads
system.mem_ctrls.wrPerTurnAround::mean      16.033404                       # Writes before turning the bus around for reads
system.mem_ctrls.wrPerTurnAround::gmean     16.030059                       # Writes before turning the bus around for reads
system.mem_ctrls.wrPerTurnAround::stdev      0.353336                       # Writes before turning the bus around for reads
system.mem_ctrls.wrPerTurnAround::16            91782     98.96%     98.96% # Writes before turning the bus around for reads
system.mem_ctrls.wrPerTurnAround::17              126      0.14%     99.10% # Writes before turning the bus around for reads
system.mem_ctrls.wrPerTurnAround::18              204      0.22%     99.32% # Writes before turning the bus around for reads
system.mem_ctrls.wrPerTurnAround::19              127      0.14%     99.46% # Writes before turning the bus around for reads
system.mem_ctrls.wrPerTurnAround::20              352      0.38%     99.84% # Writes before turning the bus around for reads
system.mem_ctrls.wrPerTurnAround::21              137      0.15%     99.98% # Writes before turning the bus around for reads
system.mem_ctrls.wrPerTurnAround::22               15      0.02%    100.00% # Writes before turning the bus around for reads
system.mem_ctrls.wrPerTurnAround::total         92743                       # Writes before turning the bus around for reads
system.mem_ctrls.bytesReadDRAM               95803456                       # Total number of bytes read from DRAM
system.mem_ctrls.bytesReadWrQ                    3648                       # Total number of bytes read from write queue
system.mem_ctrls.bytesWritten                95167104                       # Total number of bytes written to DRAM
system.mem_ctrls.bytesReadSys                95807104                       # Total read bytes from the system interface side
system.mem_ctrls.bytesWrittenSys             95168576                       # Total written bytes from the system interface side
system.mem_ctrls.avgRdBW                      1655.38                       # Average DRAM read bandwidth in MiByte/s
system.mem_ctrls.avgWrBW                      1644.39                       # Average achieved write bandwidth in MiByte/s
system.mem_ctrls.avgRdBWSys                   1655.45                       # Average system read bandwidth in MiByte/s
system.mem_ctrls.avgWrBWSys                   1644.41                       # Average system write bandwidth in MiByte/s
system.mem_ctrls.peakBW                      12800.00                       # Theoretical peak bandwidth in MiByte/s
system.mem_ctrls.busUtil                        25.78                       # Data bus utilization in percentage
system.mem_ctrls.busUtilRead                    12.93                       # Data bus utilization in percentage for reads
system.mem_ctrls.busUtilWrite                   12.85                       # Data bus utilization in percentage for writes
system.mem_ctrls.totGap                   57873882500                       # Total gap between requests
system.mem_ctrls.avgGap                      19394.77                       # Average gap between requests
system.mem_ctrls.masterReadBytes::.cpu0.inst       116736                       # Per-master bytes read from memory
system.mem_ctrls.masterReadBytes::.cpu0.data     58361536                       # Per-master bytes read from memory
system.mem_ctrls.masterReadBytes::.cpu1.inst       109568                       # Per-master bytes read from memory
system.mem_ctrls.masterReadBytes::.cpu1.data     37215616                       # Per-master bytes read from memory
system.mem_ctrls.masterWriteBytes::.writebacks     95167104                       # Per-master bytes write to memory
system.mem_ctrls.masterReadRate::.cpu0.inst 2017074.723455480300                       # Per-master bytes read from memory rate (Bytes/sec)
system.mem_ctrls.masterReadRate::.cpu0.data 1008425670.638338327408                       # Per-master bytes read from memory rate (Bytes/sec)
system.mem_ctrls.masterReadRate::.cpu1.inst 1893219.257980143884                       # Per-master bytes read from memory rate (Bytes/sec)
system.mem_ctrls.masterReadRate::.cpu1.data 643046518.224243998528                       # Per-master bytes read from memory rate (Bytes/sec)
system.mem_ctrls.masterWriteRate::.writebacks 1644386992.725970983505                       # Per-master bytes write to memory rate (Bytes/sec)
system.mem_ctrls.masterReadAccesses::.cpu0.inst         1824                       # Per-master read serviced memory accesses
system.mem_ctrls.masterReadAccesses::.cpu0.data       911914                       # Per-master read serviced memory accesses
system.mem_ctrls.masterReadAccesses::.cpu1.inst         1712                       # Per-master read serviced memory accesses
system.mem_ctrls.masterReadAccesses::.cpu1.data       581536                       # Per-master read serviced memory accesses
system.mem_ctrls.masterWriteAccesses::.writebacks      1487009                       # Per-master write serviced memory accesses
system.mem_ctrls.masterReadTotalLat::.cpu0.inst     55213750                       # Per-master read total memory access latency
system.mem_ctrls.masterReadTotalLat::.cpu0.data  31053522500                       # Per-master read total memory access latency
system.mem_ctrls.masterReadTotalLat::.cpu1.inst     55764250                       # Per-master read total memory access latency
system.mem_ctrls.masterReadTotalLat::.cpu1.data  20424066000                       # Per-master read total memory access latency
system.mem_ctrls.masterWriteTotalLat::.writebacks 1480433841250                       # Per-master write total memory access latency
system.mem_ctrls.masterReadAvgLat::.cpu0.inst     30270.70                       # Per-master read average memory access latency
system.mem_ctrls.masterReadAvgLat::.cpu0.data     34053.13                       # Per-master read average memory access latency
system.mem_ctrls.masterReadAvgLat::.cpu1.inst     32572.58                       # Per-master read average memory access latency
system.mem_ctrls.masterReadAvgLat::.cpu1.data     35120.90                       # Per-master read average memory access latency
system.mem_ctrls.masterWriteAvgLat::.writebacks    995578.27                       # Per-master write average memory access latency
system.mem_ctrls.pageHitRate                    93.03                       # Row buffer hit rate, read and write combined
system.mem_ctrls.rank1.actEnergy            742003080                       # Energy for activate commands per rank (pJ)
system.mem_ctrls.rank1.preEnergy            394372605                       # Energy for precharge commands per rank (pJ)
system.mem_ctrls.rank1.readEnergy          5340891360                       # Energy for read commands per rank (pJ)
system.mem_ctrls.rank1.writeEnergy         3877995420                       # Energy for write commands per rank (pJ)
system.mem_ctrls.rank1.refreshEnergy     4568004480.000001                       # Energy for refresh commands per rank (pJ)
system.mem_ctrls.rank1.actBackEnergy      23151631860                       # Energy for active background per rank (pJ)
system.mem_ctrls.rank1.preBackEnergy       2727470400                       # Energy for precharge background per rank (pJ)
system.mem_ctrls.rank1.actPowerDownEnergy            0                       # Energy for active power-down per rank (pJ)
system.mem_ctrls.rank1.prePowerDownEnergy            0                       # Energy for precharge power-down per rank (pJ)
system.mem_ctrls.rank1.selfRefreshEnergy            0                       # Energy for self refresh per rank (pJ)
system.mem_ctrls.rank1.totalEnergy        40802369205                       # Total energy per rank (pJ)
system.mem_ctrls.rank1.averagePower        705.021823                       # Core power per rank (mW)
system.mem_ctrls.rank1.totalIdleTime                0                       # Total Idle time Per DRAM Rank
system.mem_ctrls.rank1.memoryStateTime::IDLE   6652533750                       # Time in different power states
system.mem_ctrls.rank1.memoryStateTime::REF   1932320000                       # Time in different power states
system.mem_ctrls.rank1.memoryStateTime::SREF            0                       # Time in different power states
system.mem_ctrls.rank1.memoryStateTime::PRE_PDN            0                       # Time in different power states
system.mem_ctrls.rank1.memoryStateTime::ACT  49289055750                       # Time in different power states
system.mem_ctrls.rank1.memoryStateTime::ACT_PDN            0                       # Time in different power states
system.mem_ctrls.rank0.actEnergy            743723820                       # Energy for activate commands per rank (pJ)
system.mem_ctrls.rank0.preEnergy            395287200                       # Energy for precharge commands per rank (pJ)
system.mem_ctrls.rank0.readEnergy          5347181700                       # Energy for read commands per rank (pJ)
system.mem_ctrls.rank0.writeEnergy         3884071500                       # Energy for write commands per rank (pJ)
system.mem_ctrls.rank0.refreshEnergy     4568004480.000001                       # Energy for refresh commands per rank (pJ)
system.mem_ctrls.rank0.actBackEnergy      23097428850                       # Energy for active background per rank (pJ)
system.mem_ctrls.rank0.preBackEnergy       2773115040                       # Energy for precharge background per rank (pJ)
system.mem_ctrls.rank0.actPowerDownEnergy            0                       # Energy for active power-down per rank (pJ)
system.mem_ctrls.rank0.prePowerDownEnergy            0                       # Energy for precharge power-down per rank (pJ)
system.mem_ctrls.rank0.selfRefreshEnergy            0                       # Energy for self refresh per rank (pJ)
system.mem_ctrls.rank0.totalEnergy        40808812590                       # Total energy per rank (pJ)
system.mem_ctrls.rank0.averagePower        705.133158                       # Core power per rank (mW)
system.mem_ctrls.rank0.totalIdleTime                0                       # Total Idle time Per DRAM Rank
system.mem_ctrls.rank0.memoryStateTime::IDLE   6766556000                       # Time in different power states
system.mem_ctrls.rank0.memoryStateTime::REF   1932320000                       # Time in different power states
system.mem_ctrls.rank0.memoryStateTime::SREF            0                       # Time in different power states
system.mem_ctrls.rank0.memoryStateTime::PRE_PDN            0                       # Time in different power states
system.mem_ctrls.rank0.memoryStateTime::ACT  49175033500                       # Time in different power states
system.mem_ctrls.rank0.memoryStateTime::ACT_PDN            0                       # Time in different power states
system.mem_ctrls.power_state.pwrStateResidencyTicks::UNDEFINED  57873909500                       # Cumulative time (in ticks) in various power states
system.cpu_clk_domain.clock                       500                       # Clock period in ticks
system.tol2bus.trans_dist::ReadResp             45138                       # Transaction distribution
system.tol2bus.trans_dist::WritebackDirty      2985477                       # Transaction distribution
system.tol2bus.trans_dist::WritebackClean        19961                       # Transaction distribution
system.tol2bus.trans_dist::CleanEvict           30047                       # Transaction distribution
system.tol2bus.trans_dist::ReadExReq          1494340                       # Transaction distribution
system.tol2bus.trans_dist::ReadExResp         1494338                       # Transaction distribution
system.tol2bus.trans_dist::ReadCleanReq         19993                       # Transaction distribution
system.tol2bus.trans_dist::ReadSharedReq        25145                       # Transaction distribution
system.tol2bus.pkt_count_system.cpu0.icache.mem_side::system.l2.cpu_side        33299                       # Packet count per connected master and slave (bytes)
system.tol2bus.pkt_count_system.cpu0.dcache.mem_side::system.l2.cpu_side      2758728                       # Packet count per connected master and slave (bytes)
system.tol2bus.pkt_count_system.cpu1.icache.mem_side::system.l2.cpu_side        26648                       # Packet count per connected master and slave (bytes)
system.tol2bus.pkt_count_system.cpu1.dcache.mem_side::system.l2.cpu_side      1799691                       # Packet count per connected master and slave (bytes)
system.tol2bus.pkt_count::total               4618366                       # Packet count per connected master and slave (bytes)
system.tol2bus.pkt_size_system.cpu0.icache.mem_side::system.l2.cpu_side      1420416                       # Cumulative packet size per connected master and slave (bytes)
system.tol2bus.pkt_size_system.cpu0.dcache.mem_side::system.l2.cpu_side    117280256                       # Cumulative packet size per connected master and slave (bytes)
system.tol2bus.pkt_size_system.cpu1.icache.mem_side::system.l2.cpu_side      1136640                       # Cumulative packet size per connected master and slave (bytes)
system.tol2bus.pkt_size_system.cpu1.dcache.mem_side::system.l2.cpu_side     75868608                       # Cumulative packet size per connected master and slave (bytes)
system.tol2bus.pkt_size::total              195705920                       # Cumulative packet size per connected master and slave (bytes)
system.tol2bus.snoops                         1496073                       # Total snoops (count)
system.tol2bus.snoopTraffic                  95168576                       # Total snoop traffic (bytes)
system.tol2bus.snoop_fanout::samples          3035551                       # Request fanout histogram
system.tol2bus.snoop_fanout::mean            0.000054                       # Request fanout histogram
system.tol2bus.snoop_fanout::stdev           0.007350                       # Request fanout histogram
system.tol2bus.snoop_fanout::underflows             0      0.00%      0.00% # Request fanout histogram
system.tol2bus.snoop_fanout::0                3035387     99.99%     99.99% # Request fanout histogram
system.tol2bus.snoop_fanout::1                    164      0.01%    100.00% # Request fanout histogram
system.tol2bus.snoop_fanout::2                      0      0.00%    100.00% # Request fanout histogram
system.tol2bus.snoop_fanout::3                      0      0.00%    100.00% # Request fanout histogram
system.tol2bus.snoop_fanout::4                      0      0.00%    100.00% # Request fanout histogram
system.tol2bus.snoop_fanout::5                      0      0.00%    100.00% # Request fanout histogram
system.tol2bus.snoop_fanout::6                      0      0.00%    100.00% # Request fanout histogram
system.tol2bus.snoop_fanout::7                      0      0.00%    100.00% # Request fanout histogram
system.tol2bus.snoop_fanout::8                      0      0.00%    100.00% # Request fanout histogram
system.tol2bus.snoop_fanout::overflows              0      0.00%    100.00% # Request fanout histogram
system.tol2bus.snoop_fanout::min_value              0                       # Request fanout histogram
system.tol2bus.snoop_fanout::max_value              1                       # Request fanout histogram
system.tol2bus.snoop_fanout::total            3035551                       # Request fanout histogram
system.tol2bus.reqLayer0.occupancy         3057874000                       # Layer occupancy (ticks)
system.tol2bus.reqLayer0.utilization              5.3                       # Layer utilization (%)
system.tol2bus.respLayer5.occupancy         899873958                       # Layer occupancy (ticks)
system.tol2bus.respLayer5.utilization             1.6                       # Layer utilization (%)
system.tol2bus.respLayer4.occupancy          13343976                       # Layer occupancy (ticks)
system.tol2bus.respLayer4.utilization             0.0                       # Layer utilization (%)
system.tol2bus.respLayer1.occupancy        1379435372                       # Layer occupancy (ticks)
system.tol2bus.respLayer1.utilization             2.4                       # Layer utilization (%)
system.tol2bus.respLayer0.occupancy          16670474                       # Layer occupancy (ticks)
system.tol2bus.respLayer0.utilization             0.0                       # Layer utilization (%)
system.tol2bus.power_state.pwrStateResidencyTicks::UNDEFINED  57873909500                       # Cumulative time (in ticks) in various power states

---------- End Simulation Statistics   ----------
