
---------- Begin Simulation Statistics ----------
final_tick                                57676713500                       # Number of ticks from beginning of simulation (restored from checkpoints and never reset)
host_inst_rate                                 205062                       # Simulator instruction rate (inst/s)
host_mem_usage                                4434624                       # Number of bytes of host memory used
host_op_rate                                   327192                       # Simulator op (including micro ops) rate (op/s)
host_seconds                                    73.02                       # Real time elapsed on the host
host_tick_rate                              789836716                       # Simulator tick rate (ticks/s)
sim_freq                                 1000000000000                       # Frequency of simulated ticks
sim_insts                                    14974377                       # Number of instructions simulated
sim_ops                                      23892736                       # Number of ops (including micro ops) simulated
sim_seconds                                  0.057677                       # Number of seconds simulated
sim_ticks                                 57676713500                       # Number of ticks simulated
system.cpu0.branchPred.BTBCorrect                   0                       # Number of correct BTB predictions (this stat may not work properly.
system.cpu0.branchPred.BTBHitPct                  nan                       # BTB Hit Percentage
system.cpu0.branchPred.BTBHits                      0                       # Number of BTB hits
system.cpu0.branchPred.BTBLookups                   0                       # Number of BTB lookups
system.cpu0.branchPred.RASInCorrect                 0                       # Number of incorrect RAS predictions.
system.cpu0.branchPred.condIncorrect               40                       # Number of conditional branches incorrect
system.cpu0.branchPred.condPredicted               85                       # Number of conditional branches predicted
system.cpu0.branchPred.indirectHits                 0                       # Number of indirect target hits.
system.cpu0.branchPred.indirectLookups             25                       # Number of indirect predictor lookups.
system.cpu0.branchPred.indirectMisses              25                       # Number of indirect misses.
system.cpu0.branchPred.lookups                     85                       # Number of BP lookups
system.cpu0.branchPred.usedRAS                      0                       # Number of times the RAS was used to get a target.
system.cpu0.branchPredindirectMispredicted           11                       # Number of mispredicted indirect branches.
system.cpu0.committedInsts                   10000001                       # Number of instructions committed
system.cpu0.committedOps                     14509368                       # Number of ops (including micro ops) committed
system.cpu0.cpi                             11.535342                       # CPI: cycles per instruction
system.cpu0.discardedOps                      1920443                       # Number of ops (including micro ops) which were discarded before commit
system.cpu0.dtb.rdAccesses                    1871004                       # TLB accesses on read requests
system.cpu0.dtb.rdMisses                       365540                       # TLB misses on read requests
system.cpu0.dtb.wrAccesses                    7295814                       # TLB accesses on write requests
system.cpu0.dtb.wrMisses                        28451                       # TLB misses on write requests
system.cpu0.fetch2.amo_instructions                 0                       # Number of memory atomic instructions successfully decoded
system.cpu0.fetch2.fp_instructions                  0                       # Number of floating point instructions successfully decoded
system.cpu0.fetch2.int_instructions                 8                       # Number of integer instructions successfully decoded
system.cpu0.fetch2.load_instructions                0                       # Number of memory load instructions successfully decoded
system.cpu0.fetch2.store_instructions               0                       # Number of memory store instructions successfully decoded
system.cpu0.fetch2.vec_instructions                 0                       # Number of SIMD instructions successfully decoded
system.cpu0.idleCycles                       95383161                       # Total number of cycles that the object has spent stopped
system.cpu0.ipc                              0.086690                       # IPC: instructions per cycle
system.cpu0.itb.rdAccesses                          0                       # TLB accesses on read requests
system.cpu0.itb.rdMisses                            0                       # TLB misses on read requests
system.cpu0.itb.wrAccesses                    2313332                       # TLB accesses on write requests
system.cpu0.itb.wrMisses                          252                       # TLB misses on write requests
system.cpu0.numCycles                       115353427                       # number of cpu cycles simulated
system.cpu0.numFetchSuspends                        0                       # Number of times Execute suspended instruction fetching
system.cpu0.numWorkItemsCompleted                   0                       # number of work items this cpu completed
system.cpu0.numWorkItemsStarted                     0                       # number of work items this cpu started
system.cpu0.op_class_0::No_OpClass               1997      0.01%      0.01% # Class of committed instruction
system.cpu0.op_class_0::IntAlu                4979363     34.32%     34.33% # Class of committed instruction
system.cpu0.op_class_0::IntMult                    36      0.00%     34.33% # Class of committed instruction
system.cpu0.op_class_0::IntDiv                   1447      0.01%     34.34% # Class of committed instruction
system.cpu0.op_class_0::FloatAdd              1090392      7.52%     41.86% # Class of committed instruction
system.cpu0.op_class_0::FloatCmp                    0      0.00%     41.86% # Class of committed instruction
system.cpu0.op_class_0::FloatCvt                  112      0.00%     41.86% # Class of committed instruction
system.cpu0.op_class_0::FloatMult                   0      0.00%     41.86% # Class of committed instruction
system.cpu0.op_class_0::FloatMultAcc                0      0.00%     41.86% # Class of committed instruction
system.cpu0.op_class_0::FloatDiv                    0      0.00%     41.86% # Class of committed instruction
system.cpu0.op_class_0::FloatMisc                   0      0.00%     41.86% # Class of committed instruction
system.cpu0.op_class_0::FloatSqrt                   0      0.00%     41.86% # Class of committed instruction
system.cpu0.op_class_0::SimdAdd                  1140      0.01%     41.87% # Class of committed instruction
system.cpu0.op_class_0::SimdAddAcc                  0      0.00%     41.87% # Class of committed instruction
system.cpu0.op_class_0::SimdAlu                  1367      0.01%     41.88% # Class of committed instruction
system.cpu0.op_class_0::SimdCmp                    12      0.00%     41.88% # Class of committed instruction
system.cpu0.op_class_0::SimdCvt                  1866      0.01%     41.89% # Class of committed instruction
system.cpu0.op_class_0::SimdMisc                 1287      0.01%     41.90% # Class of committed instruction
system.cpu0.op_class_0::SimdMult                    0      0.00%     41.90% # Class of committed instruction
system.cpu0.op_class_0::SimdMultAcc                 0      0.00%     41.90% # Class of committed instruction
system.cpu0.op_class_0::SimdShift                 426      0.00%     41.90% # Class of committed instruction
system.cpu0.op_class_0::SimdShiftAcc                0      0.00%     41.90% # Class of committed instruction
system.cpu0.op_class_0::SimdDiv                     0      0.00%     41.90% # Class of committed instruction
system.cpu0.op_class_0::SimdSqrt                    0      0.00%     41.90% # Class of committed instruction
system.cpu0.op_class_0::SimdFloatAdd                0      0.00%     41.90% # Class of committed instruction
system.cpu0.op_class_0::SimdFloatAlu                0      0.00%     41.90% # Class of committed instruction
system.cpu0.op_class_0::SimdFloatCmp                0      0.00%     41.90% # Class of committed instruction
system.cpu0.op_class_0::SimdFloatCvt                2      0.00%     41.90% # Class of committed instruction
system.cpu0.op_class_0::SimdFloatDiv                0      0.00%     41.90% # Class of committed instruction
system.cpu0.op_class_0::SimdFloatMisc               0      0.00%     41.90% # Class of committed instruction
system.cpu0.op_class_0::SimdFloatMult               0      0.00%     41.90% # Class of committed instruction
system.cpu0.op_class_0::SimdFloatMultAcc            0      0.00%     41.90% # Class of committed instruction
system.cpu0.op_class_0::SimdFloatSqrt               0      0.00%     41.90% # Class of committed instruction
system.cpu0.op_class_0::SimdReduceAdd               0      0.00%     41.90% # Class of committed instruction
system.cpu0.op_class_0::SimdReduceAlu               0      0.00%     41.90% # Class of committed instruction
system.cpu0.op_class_0::SimdReduceCmp               0      0.00%     41.90% # Class of committed instruction
system.cpu0.op_class_0::SimdFloatReduceAdd            0      0.00%     41.90% # Class of committed instruction
system.cpu0.op_class_0::SimdFloatReduceCmp            0      0.00%     41.90% # Class of committed instruction
system.cpu0.op_class_0::SimdAes                     0      0.00%     41.90% # Class of committed instruction
system.cpu0.op_class_0::SimdAesMix                  0      0.00%     41.90% # Class of committed instruction
system.cpu0.op_class_0::SimdSha1Hash                0      0.00%     41.90% # Class of committed instruction
system.cpu0.op_class_0::SimdSha1Hash2               0      0.00%     41.90% # Class of committed instruction
system.cpu0.op_class_0::SimdSha256Hash              0      0.00%     41.90% # Class of committed instruction
system.cpu0.op_class_0::SimdSha256Hash2             0      0.00%     41.90% # Class of committed instruction
system.cpu0.op_class_0::SimdShaSigma2               0      0.00%     41.90% # Class of committed instruction
system.cpu0.op_class_0::SimdShaSigma3               0      0.00%     41.90% # Class of committed instruction
system.cpu0.op_class_0::SimdPredAlu                 0      0.00%     41.90% # Class of committed instruction
system.cpu0.op_class_0::MemRead                 42409      0.29%     42.19% # Class of committed instruction
system.cpu0.op_class_0::MemWrite               389289      2.68%     44.88% # Class of committed instruction
system.cpu0.op_class_0::FloatMemRead          1092474      7.53%     52.40% # Class of committed instruction
system.cpu0.op_class_0::FloatMemWrite         6905749     47.60%    100.00% # Class of committed instruction
system.cpu0.op_class_0::IprAccess                   0      0.00%    100.00% # Class of committed instruction
system.cpu0.op_class_0::InstPrefetch                0      0.00%    100.00% # Class of committed instruction
system.cpu0.op_class_0::total                14509368                       # Class of committed instruction
system.cpu0.tickCycles                       19970266                       # Number of cycles that the object actually ticked
system.cpu0.workload.numSyscalls                   40                       # Number of system calls
system.cpu1.branchPred.BTBCorrect                   0                       # Number of correct BTB predictions (this stat may not work properly.
system.cpu1.branchPred.BTBHitPct                  nan                       # BTB Hit Percentage
system.cpu1.branchPred.BTBHits                      0                       # Number of BTB hits
system.cpu1.branchPred.BTBLookups                   0                       # Number of BTB lookups
system.cpu1.branchPred.RASInCorrect                 0                       # Number of incorrect RAS predictions.
system.cpu1.branchPred.condIncorrect               30                       # Number of conditional branches incorrect
system.cpu1.branchPred.condPredicted               65                       # Number of conditional branches predicted
system.cpu1.branchPred.indirectHits                 0                       # Number of indirect target hits.
system.cpu1.branchPred.indirectLookups             31                       # Number of indirect predictor lookups.
system.cpu1.branchPred.indirectMisses              31                       # Number of indirect misses.
system.cpu1.branchPred.lookups                     65                       # Number of BP lookups
system.cpu1.branchPred.usedRAS                      0                       # Number of times the RAS was used to get a target.
system.cpu1.branchPredindirectMispredicted           18                       # Number of mispredicted indirect branches.
system.cpu1.committedInsts                    4974376                       # Number of instructions committed
system.cpu1.committedOps                      9383368                       # Number of ops (including micro ops) committed
system.cpu1.cpi                             23.189520                       # CPI: cycles per instruction
system.cpu1.discardedOps                      3100412                       # Number of ops (including micro ops) which were discarded before commit
system.cpu1.dtb.rdAccesses                     785444                       # TLB accesses on read requests
system.cpu1.dtb.rdMisses                         2039                       # TLB misses on read requests
system.cpu1.dtb.wrAccesses                    4749090                       # TLB accesses on write requests
system.cpu1.dtb.wrMisses                        18102                       # TLB misses on write requests
system.cpu1.fetch2.amo_instructions                 0                       # Number of memory atomic instructions successfully decoded
system.cpu1.fetch2.fp_instructions                  0                       # Number of floating point instructions successfully decoded
system.cpu1.fetch2.int_instructions                 8                       # Number of integer instructions successfully decoded
system.cpu1.fetch2.load_instructions                0                       # Number of memory load instructions successfully decoded
system.cpu1.fetch2.store_instructions               0                       # Number of memory store instructions successfully decoded
system.cpu1.fetch2.vec_instructions                 0                       # Number of SIMD instructions successfully decoded
system.cpu1.idleCycles                       99690062                       # Total number of cycles that the object has spent stopped
system.cpu1.ipc                              0.043123                       # IPC: instructions per cycle
system.cpu1.itb.rdAccesses                          0                       # TLB accesses on read requests
system.cpu1.itb.rdMisses                            0                       # TLB misses on read requests
system.cpu1.itb.wrAccesses                    1961977                       # TLB accesses on write requests
system.cpu1.itb.wrMisses                          194                       # TLB misses on write requests
system.cpu1.numCycles                       115353391                       # number of cpu cycles simulated
system.cpu1.numFetchSuspends                        0                       # Number of times Execute suspended instruction fetching
system.cpu1.numWorkItemsCompleted                   0                       # number of work items this cpu completed
system.cpu1.numWorkItemsStarted                     0                       # number of work items this cpu started
system.cpu1.op_class_0::No_OpClass               2098      0.02%      0.02% # Class of committed instruction
system.cpu1.op_class_0::IntAlu                4426934     47.18%     47.20% # Class of committed instruction
system.cpu1.op_class_0::IntMult                   641      0.01%     47.21% # Class of committed instruction
system.cpu1.op_class_0::IntDiv                   1317      0.01%     47.22% # Class of committed instruction
system.cpu1.op_class_0::FloatAdd                  189      0.00%     47.22% # Class of committed instruction
system.cpu1.op_class_0::FloatCmp                    0      0.00%     47.22% # Class of committed instruction
system.cpu1.op_class_0::FloatCvt                   96      0.00%     47.22% # Class of committed instruction
system.cpu1.op_class_0::FloatMult                   0      0.00%     47.22% # Class of committed instruction
system.cpu1.op_class_0::FloatMultAcc                0      0.00%     47.22% # Class of committed instruction
system.cpu1.op_class_0::FloatDiv                    0      0.00%     47.22% # Class of committed instruction
system.cpu1.op_class_0::FloatMisc                   0      0.00%     47.22% # Class of committed instruction
system.cpu1.op_class_0::FloatSqrt                   0      0.00%     47.22% # Class of committed instruction
system.cpu1.op_class_0::SimdAdd                   916      0.01%     47.23% # Class of committed instruction
system.cpu1.op_class_0::SimdAddAcc                  0      0.00%     47.23% # Class of committed instruction
system.cpu1.op_class_0::SimdAlu                   943      0.01%     47.24% # Class of committed instruction
system.cpu1.op_class_0::SimdCmp                     0      0.00%     47.24% # Class of committed instruction
system.cpu1.op_class_0::SimdCvt                  1230      0.01%     47.26% # Class of committed instruction
system.cpu1.op_class_0::SimdMisc                  843      0.01%     47.27% # Class of committed instruction
system.cpu1.op_class_0::SimdMult                    0      0.00%     47.27% # Class of committed instruction
system.cpu1.op_class_0::SimdMultAcc                 0      0.00%     47.27% # Class of committed instruction
system.cpu1.op_class_0::SimdShift                 388      0.00%     47.27% # Class of committed instruction
system.cpu1.op_class_0::SimdShiftAcc                0      0.00%     47.27% # Class of committed instruction
system.cpu1.op_class_0::SimdDiv                     0      0.00%     47.27% # Class of committed instruction
system.cpu1.op_class_0::SimdSqrt                    0      0.00%     47.27% # Class of committed instruction
system.cpu1.op_class_0::SimdFloatAdd                0      0.00%     47.27% # Class of committed instruction
system.cpu1.op_class_0::SimdFloatAlu                0      0.00%     47.27% # Class of committed instruction
system.cpu1.op_class_0::SimdFloatCmp                0      0.00%     47.27% # Class of committed instruction
system.cpu1.op_class_0::SimdFloatCvt                0      0.00%     47.27% # Class of committed instruction
system.cpu1.op_class_0::SimdFloatDiv                0      0.00%     47.27% # Class of committed instruction
system.cpu1.op_class_0::SimdFloatMisc               0      0.00%     47.27% # Class of committed instruction
system.cpu1.op_class_0::SimdFloatMult               0      0.00%     47.27% # Class of committed instruction
system.cpu1.op_class_0::SimdFloatMultAcc            0      0.00%     47.27% # Class of committed instruction
system.cpu1.op_class_0::SimdFloatSqrt               0      0.00%     47.27% # Class of committed instruction
system.cpu1.op_class_0::SimdReduceAdd               0      0.00%     47.27% # Class of committed instruction
system.cpu1.op_class_0::SimdReduceAlu               0      0.00%     47.27% # Class of committed instruction
system.cpu1.op_class_0::SimdReduceCmp               0      0.00%     47.27% # Class of committed instruction
system.cpu1.op_class_0::SimdFloatReduceAdd            0      0.00%     47.27% # Class of committed instruction
system.cpu1.op_class_0::SimdFloatReduceCmp            0      0.00%     47.27% # Class of committed instruction
system.cpu1.op_class_0::SimdAes                     0      0.00%     47.27% # Class of committed instruction
system.cpu1.op_class_0::SimdAesMix                  0      0.00%     47.27% # Class of committed instruction
system.cpu1.op_class_0::SimdSha1Hash                0      0.00%     47.27% # Class of committed instruction
system.cpu1.op_class_0::SimdSha1Hash2               0      0.00%     47.27% # Class of committed instruction
system.cpu1.op_class_0::SimdSha256Hash              0      0.00%     47.27% # Class of committed instruction
system.cpu1.op_class_0::SimdSha256Hash2             0      0.00%     47.27% # Class of committed instruction
system.cpu1.op_class_0::SimdShaSigma2               0      0.00%     47.27% # Class of committed instruction
system.cpu1.op_class_0::SimdShaSigma3               0      0.00%     47.27% # Class of committed instruction
system.cpu1.op_class_0::SimdPredAlu                 0      0.00%     47.27% # Class of committed instruction
system.cpu1.op_class_0::MemRead                199681      2.13%     49.40% # Class of committed instruction
system.cpu1.op_class_0::MemWrite               133412      1.42%     50.82% # Class of committed instruction
system.cpu1.op_class_0::FloatMemRead             1610      0.02%     50.84% # Class of committed instruction
system.cpu1.op_class_0::FloatMemWrite         4613070     49.16%    100.00% # Class of committed instruction
system.cpu1.op_class_0::IprAccess                   0      0.00%    100.00% # Class of committed instruction
system.cpu1.op_class_0::InstPrefetch                0      0.00%    100.00% # Class of committed instruction
system.cpu1.op_class_0::total                 9383368                       # Class of committed instruction
system.cpu1.tickCycles                       15663329                       # Number of cycles that the object actually ticked
system.cpu1.workload.numSyscalls                   30                       # Number of system calls
system.membus.snoop_filter.hit_multi_requests            0                       # Number of requests hitting in the snoop filter with multiple (>1) holders of the requested data.
system.membus.snoop_filter.hit_multi_snoops            0                       # Number of snoops hitting in the snoop filter with multiple (>1) holders of the requested data.
system.membus.snoop_filter.hit_single_requests      1497760                       # Number of requests hitting in the snoop filter with a single holder of the requested data.
system.membus.snoop_filter.hit_single_snoops            0                       # Number of snoops hitting in the snoop filter with a single holder of the requested data.
system.membus.snoop_filter.tot_requests       2996580                       # Total number of requests made to the snoop filter.
system.membus.snoop_filter.tot_snoops               0                       # Total number of snoops made to the snoop filter.
system.tol2bus.snoop_filter.hit_multi_requests            0                       # Number of requests hitting in the snoop filter with multiple (>1) holders of the requested data.
system.tol2bus.snoop_filter.hit_multi_snoops            0                       # Number of snoops hitting in the snoop filter with multiple (>1) holders of the requested data.
system.tol2bus.snoop_filter.hit_single_requests      1539360                       # Number of requests hitting in the snoop filter with a single holder of the requested data.
system.tol2bus.snoop_filter.hit_single_snoops         1486                       # Number of snoops hitting in the snoop filter with a single holder of the requested data.
system.tol2bus.snoop_filter.tot_requests      3078786                       # Total number of requests made to the snoop filter.
system.tol2bus.snoop_filter.tot_snoops           1486                       # Total number of snoops made to the snoop filter.
system.membus.trans_dist::ReadResp              10911                       # Transaction distribution
system.membus.trans_dist::WritebackDirty      1487151                       # Transaction distribution
system.membus.trans_dist::CleanEvict            10609                       # Transaction distribution
system.membus.trans_dist::ReadExReq           1487909                       # Transaction distribution
system.membus.trans_dist::ReadExResp          1487908                       # Transaction distribution
system.membus.trans_dist::ReadSharedReq         10911                       # Transaction distribution
system.membus.pkt_count_system.l2.mem_side::system.mem_ctrls.port      4495399                       # Packet count per connected master and slave (bytes)
system.membus.pkt_count_system.l2.mem_side::total      4495399                       # Packet count per connected master and slave (bytes)
system.membus.pkt_count::total                4495399                       # Packet count per connected master and slave (bytes)
system.membus.pkt_size_system.l2.mem_side::system.mem_ctrls.port    191102080                       # Cumulative packet size per connected master and slave (bytes)
system.membus.pkt_size_system.l2.mem_side::total    191102080                       # Cumulative packet size per connected master and slave (bytes)
system.membus.pkt_size::total               191102080                       # Cumulative packet size per connected master and slave (bytes)
system.membus.snoops                                0                       # Total snoops (count)
system.membus.snoopTraffic                          0                       # Total snoop traffic (bytes)
system.membus.snoop_fanout::samples           1498820                       # Request fanout histogram
system.membus.snoop_fanout::mean                    0                       # Request fanout histogram
system.membus.snoop_fanout::stdev                   0                       # Request fanout histogram
system.membus.snoop_fanout::underflows              0      0.00%      0.00% # Request fanout histogram
system.membus.snoop_fanout::0                 1498820    100.00%    100.00% # Request fanout histogram
system.membus.snoop_fanout::1                       0      0.00%    100.00% # Request fanout histogram
system.membus.snoop_fanout::overflows               0      0.00%    100.00% # Request fanout histogram
system.membus.snoop_fanout::min_value               0                       # Request fanout histogram
system.membus.snoop_fanout::max_value               0                       # Request fanout histogram
system.membus.snoop_fanout::total             1498820                       # Request fanout histogram
system.membus.reqLayer4.occupancy          9516104000                       # Layer occupancy (ticks)
system.membus.reqLayer4.utilization              16.5                       # Layer utilization (%)
system.membus.respLayer1.occupancy         7821408750                       # Layer occupancy (ticks)
system.membus.respLayer1.utilization             13.6                       # Layer utilization (%)
system.membus.power_state.pwrStateResidencyTicks::UNDEFINED  57676713500                       # Cumulative time (in ticks) in various power states
system.voltage_domain.voltage                       1                       # Voltage in Volts
system.clk_domain.clock                          1000                       # Clock period in ticks
system.cpu0.icache.demand_hits::.cpu0.inst      2302147                       # number of demand (read+write) hits
system.cpu0.icache.demand_hits::total         2302147                       # number of demand (read+write) hits
system.cpu0.icache.overall_hits::.cpu0.inst      2302147                       # number of overall hits
system.cpu0.icache.overall_hits::total        2302147                       # number of overall hits
system.cpu0.icache.demand_misses::.cpu0.inst        11118                       # number of demand (read+write) misses
system.cpu0.icache.demand_misses::total         11118                       # number of demand (read+write) misses
system.cpu0.icache.overall_misses::.cpu0.inst        11118                       # number of overall misses
system.cpu0.icache.overall_misses::total        11118                       # number of overall misses
system.cpu0.icache.demand_miss_latency::.cpu0.inst    270538000                       # number of demand (read+write) miss cycles
system.cpu0.icache.demand_miss_latency::total    270538000                       # number of demand (read+write) miss cycles
system.cpu0.icache.overall_miss_latency::.cpu0.inst    270538000                       # number of overall miss cycles
system.cpu0.icache.overall_miss_latency::total    270538000                       # number of overall miss cycles
system.cpu0.icache.demand_accesses::.cpu0.inst      2313265                       # number of demand (read+write) accesses
system.cpu0.icache.demand_accesses::total      2313265                       # number of demand (read+write) accesses
system.cpu0.icache.overall_accesses::.cpu0.inst      2313265                       # number of overall (read+write) accesses
system.cpu0.icache.overall_accesses::total      2313265                       # number of overall (read+write) accesses
system.cpu0.icache.demand_miss_rate::.cpu0.inst     0.004806                       # miss rate for demand accesses
system.cpu0.icache.demand_miss_rate::total     0.004806                       # miss rate for demand accesses
system.cpu0.icache.overall_miss_rate::.cpu0.inst     0.004806                       # miss rate for overall accesses
system.cpu0.icache.overall_miss_rate::total     0.004806                       # miss rate for overall accesses
system.cpu0.icache.demand_avg_miss_latency::.cpu0.inst 24333.333333                       # average overall miss latency
system.cpu0.icache.demand_avg_miss_latency::total 24333.333333                       # average overall miss latency
system.cpu0.icache.overall_avg_miss_latency::.cpu0.inst 24333.333333                       # average overall miss latency
system.cpu0.icache.overall_avg_miss_latency::total 24333.333333                       # average overall miss latency
system.cpu0.icache.blocked_cycles::no_mshrs            0                       # number of cycles access was blocked
system.cpu0.icache.blocked_cycles::no_targets            0                       # number of cycles access was blocked
system.cpu0.icache.blocked::no_mshrs                0                       # number of cycles access was blocked
system.cpu0.icache.blocked::no_targets              0                       # number of cycles access was blocked
system.cpu0.icache.avg_blocked_cycles::no_mshrs          nan                       # average number of cycles each access was blocked
system.cpu0.icache.avg_blocked_cycles::no_targets          nan                       # average number of cycles each access was blocked
system.cpu0.icache.writebacks::.writebacks        11102                       # number of writebacks
system.cpu0.icache.writebacks::total            11102                       # number of writebacks
system.cpu0.icache.demand_mshr_misses::.cpu0.inst        11118                       # number of demand (read+write) MSHR misses
system.cpu0.icache.demand_mshr_misses::total        11118                       # number of demand (read+write) MSHR misses
system.cpu0.icache.overall_mshr_misses::.cpu0.inst        11118                       # number of overall MSHR misses
system.cpu0.icache.overall_mshr_misses::total        11118                       # number of overall MSHR misses
system.cpu0.icache.demand_mshr_miss_latency::.cpu0.inst    259420000                       # number of demand (read+write) MSHR miss cycles
system.cpu0.icache.demand_mshr_miss_latency::total    259420000                       # number of demand (read+write) MSHR miss cycles
system.cpu0.icache.overall_mshr_miss_latency::.cpu0.inst    259420000                       # number of overall MSHR miss cycles
system.cpu0.icache.overall_mshr_miss_latency::total    259420000                       # number of overall MSHR miss cycles
system.cpu0.icache.demand_mshr_miss_rate::.cpu0.inst     0.004806                       # mshr miss rate for demand accesses
system.cpu0.icache.demand_mshr_miss_rate::total     0.004806                       # mshr miss rate for demand accesses
system.cpu0.icache.overall_mshr_miss_rate::.cpu0.inst     0.004806                       # mshr miss rate for overall accesses
system.cpu0.icache.overall_mshr_miss_rate::total     0.004806                       # mshr miss rate for overall accesses
system.cpu0.icache.demand_avg_mshr_miss_latency::.cpu0.inst 23333.333333                       # average overall mshr miss latency
system.cpu0.icache.demand_avg_mshr_miss_latency::total 23333.333333                       # average overall mshr miss latency
system.cpu0.icache.overall_avg_mshr_miss_latency::.cpu0.inst 23333.333333                       # average overall mshr miss latency
system.cpu0.icache.overall_avg_mshr_miss_latency::total 23333.333333                       # average overall mshr miss latency
system.cpu0.icache.replacements                 11102                       # number of replacements
system.cpu0.icache.ReadReq_hits::.cpu0.inst      2302147                       # number of ReadReq hits
system.cpu0.icache.ReadReq_hits::total        2302147                       # number of ReadReq hits
system.cpu0.icache.ReadReq_misses::.cpu0.inst        11118                       # number of ReadReq misses
system.cpu0.icache.ReadReq_misses::total        11118                       # number of ReadReq misses
system.cpu0.icache.ReadReq_miss_latency::.cpu0.inst    270538000                       # number of ReadReq miss cycles
system.cpu0.icache.ReadReq_miss_latency::total    270538000                       # number of ReadReq miss cycles
system.cpu0.icache.ReadReq_accesses::.cpu0.inst      2313265                       # number of ReadReq accesses(hits+misses)
system.cpu0.icache.ReadReq_accesses::total      2313265                       # number of ReadReq accesses(hits+misses)
system.cpu0.icache.ReadReq_miss_rate::.cpu0.inst     0.004806                       # miss rate for ReadReq accesses
system.cpu0.icache.ReadReq_miss_rate::total     0.004806                       # miss rate for ReadReq accesses
system.cpu0.icache.ReadReq_avg_miss_latency::.cpu0.inst 24333.333333                       # average ReadReq miss latency
system.cpu0.icache.ReadReq_avg_miss_latency::total 24333.333333                       # average ReadReq miss latency
system.cpu0.icache.ReadReq_mshr_misses::.cpu0.inst        11118                       # number of ReadReq MSHR misses
system.cpu0.icache.ReadReq_mshr_misses::total        11118                       # number of ReadReq MSHR misses
system.cpu0.icache.ReadReq_mshr_miss_latency::.cpu0.inst    259420000                       # number of ReadReq MSHR miss cycles
system.cpu0.icache.ReadReq_mshr_miss_latency::total    259420000                       # number of ReadReq MSHR miss cycles
system.cpu0.icache.ReadReq_mshr_miss_rate::.cpu0.inst     0.004806                       # mshr miss rate for ReadReq accesses
system.cpu0.icache.ReadReq_mshr_miss_rate::total     0.004806                       # mshr miss rate for ReadReq accesses
system.cpu0.icache.ReadReq_avg_mshr_miss_latency::.cpu0.inst 23333.333333                       # average ReadReq mshr miss latency
system.cpu0.icache.ReadReq_avg_mshr_miss_latency::total 23333.333333                       # average ReadReq mshr miss latency
system.cpu0.icache.power_state.pwrStateResidencyTicks::UNDEFINED  57676713500                       # Cumulative time (in ticks) in various power states
system.cpu0.icache.tags.tagsinuse           15.999760                       # Cycle average of tags in use
system.cpu0.icache.tags.total_refs            2313265                       # Total number of references to valid blocks.
system.cpu0.icache.tags.sampled_refs            11118                       # Sample count of references to valid blocks.
system.cpu0.icache.tags.avg_refs           208.064850                       # Average number of references to valid blocks.
system.cpu0.icache.tags.warmup_cycle            87500                       # Cycle when the warmup percentage was hit.
system.cpu0.icache.tags.occ_blocks::.cpu0.inst    15.999760                       # Average occupied blocks per requestor
system.cpu0.icache.tags.occ_percent::.cpu0.inst     0.999985                       # Average percentage of cache occupancy
system.cpu0.icache.tags.occ_percent::total     0.999985                       # Average percentage of cache occupancy
system.cpu0.icache.tags.occ_task_id_blocks::1024           16                       # Occupied blocks per task id
system.cpu0.icache.tags.age_task_id_blocks_1024::4           16                       # Occupied blocks per task id
system.cpu0.icache.tags.occ_task_id_percent::1024            1                       # Percentage of cache occupancy per task id
system.cpu0.icache.tags.tag_accesses         18517238                       # Number of tag accesses
system.cpu0.icache.tags.data_accesses        18517238                       # Number of data accesses
system.cpu0.icache.tags.power_state.pwrStateResidencyTicks::UNDEFINED  57676713500                       # Cumulative time (in ticks) in various power states
system.cpu0.dtb.walker.power_state.pwrStateResidencyTicks::UNDEFINED  57676713500                       # Cumulative time (in ticks) in various power states
system.cpu0.interrupts.clk_domain.clock          8000                       # Clock period in ticks
system.cpu0.itb_walker_cache.blocked_cycles::no_mshrs            0                       # number of cycles access was blocked
system.cpu0.itb_walker_cache.blocked_cycles::no_targets            0                       # number of cycles access was blocked
system.cpu0.itb_walker_cache.blocked::no_mshrs            0                       # number of cycles access was blocked
system.cpu0.itb_walker_cache.blocked::no_targets            0                       # number of cycles access was blocked
system.cpu0.itb_walker_cache.avg_blocked_cycles::no_mshrs          nan                       # average number of cycles each access was blocked
system.cpu0.itb_walker_cache.avg_blocked_cycles::no_targets          nan                       # average number of cycles each access was blocked
system.cpu0.itb_walker_cache.replacements            0                       # number of replacements
system.cpu0.itb_walker_cache.power_state.pwrStateResidencyTicks::UNDEFINED  57676713500                       # Cumulative time (in ticks) in various power states
system.cpu0.itb_walker_cache.tags.tagsinuse            0                       # Cycle average of tags in use
system.cpu0.itb_walker_cache.tags.total_refs            0                       # Total number of references to valid blocks.
system.cpu0.itb_walker_cache.tags.sampled_refs            0                       # Sample count of references to valid blocks.
system.cpu0.itb_walker_cache.tags.avg_refs          nan                       # Average number of references to valid blocks.
system.cpu0.itb_walker_cache.tags.warmup_cycle            0                       # Cycle when the warmup percentage was hit.
system.cpu0.itb_walker_cache.tags.tag_accesses            0                       # Number of tag accesses
system.cpu0.itb_walker_cache.tags.data_accesses            0                       # Number of data accesses
system.cpu0.itb_walker_cache.tags.power_state.pwrStateResidencyTicks::UNDEFINED  57676713500                       # Cumulative time (in ticks) in various power states
system.cpu0.dtb_walker_cache.blocked_cycles::no_mshrs            0                       # number of cycles access was blocked
system.cpu0.dtb_walker_cache.blocked_cycles::no_targets            0                       # number of cycles access was blocked
system.cpu0.dtb_walker_cache.blocked::no_mshrs            0                       # number of cycles access was blocked
system.cpu0.dtb_walker_cache.blocked::no_targets            0                       # number of cycles access was blocked
system.cpu0.dtb_walker_cache.avg_blocked_cycles::no_mshrs          nan                       # average number of cycles each access was blocked
system.cpu0.dtb_walker_cache.avg_blocked_cycles::no_targets          nan                       # average number of cycles each access was blocked
system.cpu0.dtb_walker_cache.replacements            0                       # number of replacements
system.cpu0.dtb_walker_cache.power_state.pwrStateResidencyTicks::UNDEFINED  57676713500                       # Cumulative time (in ticks) in various power states
system.cpu0.dtb_walker_cache.tags.tagsinuse            0                       # Cycle average of tags in use
system.cpu0.dtb_walker_cache.tags.total_refs            0                       # Total number of references to valid blocks.
system.cpu0.dtb_walker_cache.tags.sampled_refs            0                       # Sample count of references to valid blocks.
system.cpu0.dtb_walker_cache.tags.avg_refs          nan                       # Average number of references to valid blocks.
system.cpu0.dtb_walker_cache.tags.warmup_cycle            0                       # Cycle when the warmup percentage was hit.
system.cpu0.dtb_walker_cache.tags.tag_accesses            0                       # Number of tag accesses
system.cpu0.dtb_walker_cache.tags.data_accesses            0                       # Number of data accesses
system.cpu0.dtb_walker_cache.tags.power_state.pwrStateResidencyTicks::UNDEFINED  57676713500                       # Cumulative time (in ticks) in various power states
system.cpu0.dcache.demand_hits::.cpu0.data      7320243                       # number of demand (read+write) hits
system.cpu0.dcache.demand_hits::total         7320243                       # number of demand (read+write) hits
system.cpu0.dcache.overall_hits::.cpu0.data      7320243                       # number of overall hits
system.cpu0.dcache.overall_hits::total        7320243                       # number of overall hits
system.cpu0.dcache.demand_misses::.cpu0.data      1465599                       # number of demand (read+write) misses
system.cpu0.dcache.demand_misses::total       1465599                       # number of demand (read+write) misses
system.cpu0.dcache.overall_misses::.cpu0.data      1465599                       # number of overall misses
system.cpu0.dcache.overall_misses::total      1465599                       # number of overall misses
system.cpu0.dcache.demand_miss_latency::.cpu0.data  99054523500                       # number of demand (read+write) miss cycles
system.cpu0.dcache.demand_miss_latency::total  99054523500                       # number of demand (read+write) miss cycles
system.cpu0.dcache.overall_miss_latency::.cpu0.data  99054523500                       # number of overall miss cycles
system.cpu0.dcache.overall_miss_latency::total  99054523500                       # number of overall miss cycles
system.cpu0.dcache.demand_accesses::.cpu0.data      8785842                       # number of demand (read+write) accesses
system.cpu0.dcache.demand_accesses::total      8785842                       # number of demand (read+write) accesses
system.cpu0.dcache.overall_accesses::.cpu0.data      8785842                       # number of overall (read+write) accesses
system.cpu0.dcache.overall_accesses::total      8785842                       # number of overall (read+write) accesses
system.cpu0.dcache.demand_miss_rate::.cpu0.data     0.166814                       # miss rate for demand accesses
system.cpu0.dcache.demand_miss_rate::total     0.166814                       # miss rate for demand accesses
system.cpu0.dcache.overall_miss_rate::.cpu0.data     0.166814                       # miss rate for overall accesses
system.cpu0.dcache.overall_miss_rate::total     0.166814                       # miss rate for overall accesses
system.cpu0.dcache.demand_avg_miss_latency::.cpu0.data 67586.374922                       # average overall miss latency
system.cpu0.dcache.demand_avg_miss_latency::total 67586.374922                       # average overall miss latency
system.cpu0.dcache.overall_avg_miss_latency::.cpu0.data 67586.374922                       # average overall miss latency
system.cpu0.dcache.overall_avg_miss_latency::total 67586.374922                       # average overall miss latency
system.cpu0.dcache.blocked_cycles::no_mshrs            0                       # number of cycles access was blocked
system.cpu0.dcache.blocked_cycles::no_targets            0                       # number of cycles access was blocked
system.cpu0.dcache.blocked::no_mshrs                0                       # number of cycles access was blocked
system.cpu0.dcache.blocked::no_targets              0                       # number of cycles access was blocked
system.cpu0.dcache.avg_blocked_cycles::no_mshrs          nan                       # average number of cycles each access was blocked
system.cpu0.dcache.avg_blocked_cycles::no_targets          nan                       # average number of cycles each access was blocked
system.cpu0.dcache.writebacks::.writebacks       912930                       # number of writebacks
system.cpu0.dcache.writebacks::total           912930                       # number of writebacks
system.cpu0.dcache.demand_mshr_hits::.cpu0.data       546019                       # number of demand (read+write) MSHR hits
system.cpu0.dcache.demand_mshr_hits::total       546019                       # number of demand (read+write) MSHR hits
system.cpu0.dcache.overall_mshr_hits::.cpu0.data       546019                       # number of overall MSHR hits
system.cpu0.dcache.overall_mshr_hits::total       546019                       # number of overall MSHR hits
system.cpu0.dcache.demand_mshr_misses::.cpu0.data       919580                       # number of demand (read+write) MSHR misses
system.cpu0.dcache.demand_mshr_misses::total       919580                       # number of demand (read+write) MSHR misses
system.cpu0.dcache.overall_mshr_misses::.cpu0.data       919580                       # number of overall MSHR misses
system.cpu0.dcache.overall_mshr_misses::total       919580                       # number of overall MSHR misses
system.cpu0.dcache.demand_mshr_miss_latency::.cpu0.data  78872508000                       # number of demand (read+write) MSHR miss cycles
system.cpu0.dcache.demand_mshr_miss_latency::total  78872508000                       # number of demand (read+write) MSHR miss cycles
system.cpu0.dcache.overall_mshr_miss_latency::.cpu0.data  78872508000                       # number of overall MSHR miss cycles
system.cpu0.dcache.overall_mshr_miss_latency::total  78872508000                       # number of overall MSHR miss cycles
system.cpu0.dcache.demand_mshr_miss_rate::.cpu0.data     0.104666                       # mshr miss rate for demand accesses
system.cpu0.dcache.demand_mshr_miss_rate::total     0.104666                       # mshr miss rate for demand accesses
system.cpu0.dcache.overall_mshr_miss_rate::.cpu0.data     0.104666                       # mshr miss rate for overall accesses
system.cpu0.dcache.overall_mshr_miss_rate::total     0.104666                       # mshr miss rate for overall accesses
system.cpu0.dcache.demand_avg_mshr_miss_latency::.cpu0.data 85770.142891                       # average overall mshr miss latency
system.cpu0.dcache.demand_avg_mshr_miss_latency::total 85770.142891                       # average overall mshr miss latency
system.cpu0.dcache.overall_avg_mshr_miss_latency::.cpu0.data 85770.142891                       # average overall mshr miss latency
system.cpu0.dcache.overall_avg_mshr_miss_latency::total 85770.142891                       # average overall mshr miss latency
system.cpu0.dcache.replacements                919563                       # number of replacements
system.cpu0.dcache.ReadReq_hits::.cpu0.data      1495636                       # number of ReadReq hits
system.cpu0.dcache.ReadReq_hits::total        1495636                       # number of ReadReq hits
system.cpu0.dcache.ReadReq_misses::.cpu0.data         9374                       # number of ReadReq misses
system.cpu0.dcache.ReadReq_misses::total         9374                       # number of ReadReq misses
system.cpu0.dcache.ReadReq_miss_latency::.cpu0.data    330388500                       # number of ReadReq miss cycles
system.cpu0.dcache.ReadReq_miss_latency::total    330388500                       # number of ReadReq miss cycles
system.cpu0.dcache.ReadReq_accesses::.cpu0.data      1505010                       # number of ReadReq accesses(hits+misses)
system.cpu0.dcache.ReadReq_accesses::total      1505010                       # number of ReadReq accesses(hits+misses)
system.cpu0.dcache.ReadReq_miss_rate::.cpu0.data     0.006229                       # miss rate for ReadReq accesses
system.cpu0.dcache.ReadReq_miss_rate::total     0.006229                       # miss rate for ReadReq accesses
system.cpu0.dcache.ReadReq_avg_miss_latency::.cpu0.data 35245.199488                       # average ReadReq miss latency
system.cpu0.dcache.ReadReq_avg_miss_latency::total 35245.199488                       # average ReadReq miss latency
system.cpu0.dcache.ReadReq_mshr_hits::.cpu0.data          334                       # number of ReadReq MSHR hits
system.cpu0.dcache.ReadReq_mshr_hits::total          334                       # number of ReadReq MSHR hits
system.cpu0.dcache.ReadReq_mshr_misses::.cpu0.data         9040                       # number of ReadReq MSHR misses
system.cpu0.dcache.ReadReq_mshr_misses::total         9040                       # number of ReadReq MSHR misses
system.cpu0.dcache.ReadReq_mshr_miss_latency::.cpu0.data    307005000                       # number of ReadReq MSHR miss cycles
system.cpu0.dcache.ReadReq_mshr_miss_latency::total    307005000                       # number of ReadReq MSHR miss cycles
system.cpu0.dcache.ReadReq_mshr_miss_rate::.cpu0.data     0.006007                       # mshr miss rate for ReadReq accesses
system.cpu0.dcache.ReadReq_mshr_miss_rate::total     0.006007                       # mshr miss rate for ReadReq accesses
system.cpu0.dcache.ReadReq_avg_mshr_miss_latency::.cpu0.data 33960.730088                       # average ReadReq mshr miss latency
system.cpu0.dcache.ReadReq_avg_mshr_miss_latency::total 33960.730088                       # average ReadReq mshr miss latency
system.cpu0.dcache.WriteReq_hits::.cpu0.data      5824607                       # number of WriteReq hits
system.cpu0.dcache.WriteReq_hits::total       5824607                       # number of WriteReq hits
system.cpu0.dcache.WriteReq_misses::.cpu0.data      1456225                       # number of WriteReq misses
system.cpu0.dcache.WriteReq_misses::total      1456225                       # number of WriteReq misses
system.cpu0.dcache.WriteReq_miss_latency::.cpu0.data  98724135000                       # number of WriteReq miss cycles
system.cpu0.dcache.WriteReq_miss_latency::total  98724135000                       # number of WriteReq miss cycles
system.cpu0.dcache.WriteReq_accesses::.cpu0.data      7280832                       # number of WriteReq accesses(hits+misses)
system.cpu0.dcache.WriteReq_accesses::total      7280832                       # number of WriteReq accesses(hits+misses)
system.cpu0.dcache.WriteReq_miss_rate::.cpu0.data     0.200008                       # miss rate for WriteReq accesses
system.cpu0.dcache.WriteReq_miss_rate::total     0.200008                       # miss rate for WriteReq accesses
system.cpu0.dcache.WriteReq_avg_miss_latency::.cpu0.data 67794.561280                       # average WriteReq miss latency
system.cpu0.dcache.WriteReq_avg_miss_latency::total 67794.561280                       # average WriteReq miss latency
system.cpu0.dcache.WriteReq_mshr_hits::.cpu0.data       545685                       # number of WriteReq MSHR hits
system.cpu0.dcache.WriteReq_mshr_hits::total       545685                       # number of WriteReq MSHR hits
system.cpu0.dcache.WriteReq_mshr_misses::.cpu0.data       910540                       # number of WriteReq MSHR misses
system.cpu0.dcache.WriteReq_mshr_misses::total       910540                       # number of WriteReq MSHR misses
system.cpu0.dcache.WriteReq_mshr_miss_latency::.cpu0.data  78565503000                       # number of WriteReq MSHR miss cycles
system.cpu0.dcache.WriteReq_mshr_miss_latency::total  78565503000                       # number of WriteReq MSHR miss cycles
system.cpu0.dcache.WriteReq_mshr_miss_rate::.cpu0.data     0.125060                       # mshr miss rate for WriteReq accesses
system.cpu0.dcache.WriteReq_mshr_miss_rate::total     0.125060                       # mshr miss rate for WriteReq accesses
system.cpu0.dcache.WriteReq_avg_mshr_miss_latency::.cpu0.data 86284.515782                       # average WriteReq mshr miss latency
system.cpu0.dcache.WriteReq_avg_mshr_miss_latency::total 86284.515782                       # average WriteReq mshr miss latency
system.cpu0.dcache.power_state.pwrStateResidencyTicks::UNDEFINED  57676713500                       # Cumulative time (in ticks) in various power states
system.cpu0.dcache.tags.tagsinuse           15.999775                       # Cycle average of tags in use
system.cpu0.dcache.tags.total_refs            8239822                       # Total number of references to valid blocks.
system.cpu0.dcache.tags.sampled_refs           919579                       # Sample count of references to valid blocks.
system.cpu0.dcache.tags.avg_refs             8.960429                       # Average number of references to valid blocks.
system.cpu0.dcache.tags.warmup_cycle           178500                       # Cycle when the warmup percentage was hit.
system.cpu0.dcache.tags.occ_blocks::.cpu0.data    15.999775                       # Average occupied blocks per requestor
system.cpu0.dcache.tags.occ_percent::.cpu0.data     0.999986                       # Average percentage of cache occupancy
system.cpu0.dcache.tags.occ_percent::total     0.999986                       # Average percentage of cache occupancy
system.cpu0.dcache.tags.occ_task_id_blocks::1024           16                       # Occupied blocks per task id
system.cpu0.dcache.tags.age_task_id_blocks_1024::0           14                       # Occupied blocks per task id
system.cpu0.dcache.tags.age_task_id_blocks_1024::4            2                       # Occupied blocks per task id
system.cpu0.dcache.tags.occ_task_id_percent::1024            1                       # Percentage of cache occupancy per task id
system.cpu0.dcache.tags.tag_accesses         71206315                       # Number of tag accesses
system.cpu0.dcache.tags.data_accesses        71206315                       # Number of data accesses
system.cpu0.dcache.tags.power_state.pwrStateResidencyTicks::UNDEFINED  57676713500                       # Cumulative time (in ticks) in various power states
system.cpu0.power_state.pwrStateResidencyTicks::ON  57676713500                       # Cumulative time (in ticks) in various power states
system.cpu0.itb.walker.power_state.pwrStateResidencyTicks::UNDEFINED  57676713500                       # Cumulative time (in ticks) in various power states
system.cpu1.icache.demand_hits::.cpu1.inst      1953096                       # number of demand (read+write) hits
system.cpu1.icache.demand_hits::total         1953096                       # number of demand (read+write) hits
system.cpu1.icache.overall_hits::.cpu1.inst      1953096                       # number of overall hits
system.cpu1.icache.overall_hits::total        1953096                       # number of overall hits
system.cpu1.icache.demand_misses::.cpu1.inst         8838                       # number of demand (read+write) misses
system.cpu1.icache.demand_misses::total          8838                       # number of demand (read+write) misses
system.cpu1.icache.overall_misses::.cpu1.inst         8838                       # number of overall misses
system.cpu1.icache.overall_misses::total         8838                       # number of overall misses
system.cpu1.icache.demand_miss_latency::.cpu1.inst    295070500                       # number of demand (read+write) miss cycles
system.cpu1.icache.demand_miss_latency::total    295070500                       # number of demand (read+write) miss cycles
system.cpu1.icache.overall_miss_latency::.cpu1.inst    295070500                       # number of overall miss cycles
system.cpu1.icache.overall_miss_latency::total    295070500                       # number of overall miss cycles
system.cpu1.icache.demand_accesses::.cpu1.inst      1961934                       # number of demand (read+write) accesses
system.cpu1.icache.demand_accesses::total      1961934                       # number of demand (read+write) accesses
system.cpu1.icache.overall_accesses::.cpu1.inst      1961934                       # number of overall (read+write) accesses
system.cpu1.icache.overall_accesses::total      1961934                       # number of overall (read+write) accesses
system.cpu1.icache.demand_miss_rate::.cpu1.inst     0.004505                       # miss rate for demand accesses
system.cpu1.icache.demand_miss_rate::total     0.004505                       # miss rate for demand accesses
system.cpu1.icache.overall_miss_rate::.cpu1.inst     0.004505                       # miss rate for overall accesses
system.cpu1.icache.overall_miss_rate::total     0.004505                       # miss rate for overall accesses
system.cpu1.icache.demand_avg_miss_latency::.cpu1.inst 33386.569360                       # average overall miss latency
system.cpu1.icache.demand_avg_miss_latency::total 33386.569360                       # average overall miss latency
system.cpu1.icache.overall_avg_miss_latency::.cpu1.inst 33386.569360                       # average overall miss latency
system.cpu1.icache.overall_avg_miss_latency::total 33386.569360                       # average overall miss latency
system.cpu1.icache.blocked_cycles::no_mshrs            0                       # number of cycles access was blocked
system.cpu1.icache.blocked_cycles::no_targets            0                       # number of cycles access was blocked
system.cpu1.icache.blocked::no_mshrs                0                       # number of cycles access was blocked
system.cpu1.icache.blocked::no_targets              0                       # number of cycles access was blocked
system.cpu1.icache.avg_blocked_cycles::no_mshrs          nan                       # average number of cycles each access was blocked
system.cpu1.icache.avg_blocked_cycles::no_targets          nan                       # average number of cycles each access was blocked
system.cpu1.icache.writebacks::.writebacks         8822                       # number of writebacks
system.cpu1.icache.writebacks::total             8822                       # number of writebacks
system.cpu1.icache.demand_mshr_misses::.cpu1.inst         8838                       # number of demand (read+write) MSHR misses
system.cpu1.icache.demand_mshr_misses::total         8838                       # number of demand (read+write) MSHR misses
system.cpu1.icache.overall_mshr_misses::.cpu1.inst         8838                       # number of overall MSHR misses
system.cpu1.icache.overall_mshr_misses::total         8838                       # number of overall MSHR misses
system.cpu1.icache.demand_mshr_miss_latency::.cpu1.inst    286232500                       # number of demand (read+write) MSHR miss cycles
system.cpu1.icache.demand_mshr_miss_latency::total    286232500                       # number of demand (read+write) MSHR miss cycles
system.cpu1.icache.overall_mshr_miss_latency::.cpu1.inst    286232500                       # number of overall MSHR miss cycles
system.cpu1.icache.overall_mshr_miss_latency::total    286232500                       # number of overall MSHR miss cycles
system.cpu1.icache.demand_mshr_miss_rate::.cpu1.inst     0.004505                       # mshr miss rate for demand accesses
system.cpu1.icache.demand_mshr_miss_rate::total     0.004505                       # mshr miss rate for demand accesses
system.cpu1.icache.overall_mshr_miss_rate::.cpu1.inst     0.004505                       # mshr miss rate for overall accesses
system.cpu1.icache.overall_mshr_miss_rate::total     0.004505                       # mshr miss rate for overall accesses
system.cpu1.icache.demand_avg_mshr_miss_latency::.cpu1.inst 32386.569360                       # average overall mshr miss latency
system.cpu1.icache.demand_avg_mshr_miss_latency::total 32386.569360                       # average overall mshr miss latency
system.cpu1.icache.overall_avg_mshr_miss_latency::.cpu1.inst 32386.569360                       # average overall mshr miss latency
system.cpu1.icache.overall_avg_mshr_miss_latency::total 32386.569360                       # average overall mshr miss latency
system.cpu1.icache.replacements                  8822                       # number of replacements
system.cpu1.icache.ReadReq_hits::.cpu1.inst      1953096                       # number of ReadReq hits
system.cpu1.icache.ReadReq_hits::total        1953096                       # number of ReadReq hits
system.cpu1.icache.ReadReq_misses::.cpu1.inst         8838                       # number of ReadReq misses
system.cpu1.icache.ReadReq_misses::total         8838                       # number of ReadReq misses
system.cpu1.icache.ReadReq_miss_latency::.cpu1.inst    295070500                       # number of ReadReq miss cycles
system.cpu1.icache.ReadReq_miss_latency::total    295070500                       # number of ReadReq miss cycles
system.cpu1.icache.ReadReq_accesses::.cpu1.inst      1961934                       # number of ReadReq accesses(hits+misses)
system.cpu1.icache.ReadReq_accesses::total      1961934                       # number of ReadReq accesses(hits+misses)
system.cpu1.icache.ReadReq_miss_rate::.cpu1.inst     0.004505                       # miss rate for ReadReq accesses
system.cpu1.icache.ReadReq_miss_rate::total     0.004505                       # miss rate for ReadReq accesses
system.cpu1.icache.ReadReq_avg_miss_latency::.cpu1.inst 33386.569360                       # average ReadReq miss latency
system.cpu1.icache.ReadReq_avg_miss_latency::total 33386.569360                       # average ReadReq miss latency
system.cpu1.icache.ReadReq_mshr_misses::.cpu1.inst         8838                       # number of ReadReq MSHR misses
system.cpu1.icache.ReadReq_mshr_misses::total         8838                       # number of ReadReq MSHR misses
system.cpu1.icache.ReadReq_mshr_miss_latency::.cpu1.inst    286232500                       # number of ReadReq MSHR miss cycles
system.cpu1.icache.ReadReq_mshr_miss_latency::total    286232500                       # number of ReadReq MSHR miss cycles
system.cpu1.icache.ReadReq_mshr_miss_rate::.cpu1.inst     0.004505                       # mshr miss rate for ReadReq accesses
system.cpu1.icache.ReadReq_mshr_miss_rate::total     0.004505                       # mshr miss rate for ReadReq accesses
system.cpu1.icache.ReadReq_avg_mshr_miss_latency::.cpu1.inst 32386.569360                       # average ReadReq mshr miss latency
system.cpu1.icache.ReadReq_avg_mshr_miss_latency::total 32386.569360                       # average ReadReq mshr miss latency
system.cpu1.icache.power_state.pwrStateResidencyTicks::UNDEFINED  57676713500                       # Cumulative time (in ticks) in various power states
system.cpu1.icache.tags.tagsinuse           15.999749                       # Cycle average of tags in use
system.cpu1.icache.tags.total_refs            1961934                       # Total number of references to valid blocks.
system.cpu1.icache.tags.sampled_refs             8838                       # Sample count of references to valid blocks.
system.cpu1.icache.tags.avg_refs           221.988459                       # Average number of references to valid blocks.
system.cpu1.icache.tags.warmup_cycle            92500                       # Cycle when the warmup percentage was hit.
system.cpu1.icache.tags.occ_blocks::.cpu1.inst    15.999749                       # Average occupied blocks per requestor
system.cpu1.icache.tags.occ_percent::.cpu1.inst     0.999984                       # Average percentage of cache occupancy
system.cpu1.icache.tags.occ_percent::total     0.999984                       # Average percentage of cache occupancy
system.cpu1.icache.tags.occ_task_id_blocks::1024           16                       # Occupied blocks per task id
system.cpu1.icache.tags.age_task_id_blocks_1024::4           16                       # Occupied blocks per task id
system.cpu1.icache.tags.occ_task_id_percent::1024            1                       # Percentage of cache occupancy per task id
system.cpu1.icache.tags.tag_accesses         15704310                       # Number of tag accesses
system.cpu1.icache.tags.data_accesses        15704310                       # Number of data accesses
system.cpu1.icache.tags.power_state.pwrStateResidencyTicks::UNDEFINED  57676713500                       # Cumulative time (in ticks) in various power states
system.cpu1.dtb.walker.power_state.pwrStateResidencyTicks::UNDEFINED  57676713500                       # Cumulative time (in ticks) in various power states
system.cpu1.interrupts.clk_domain.clock          8000                       # Clock period in ticks
system.cpu1.itb_walker_cache.blocked_cycles::no_mshrs            0                       # number of cycles access was blocked
system.cpu1.itb_walker_cache.blocked_cycles::no_targets            0                       # number of cycles access was blocked
system.cpu1.itb_walker_cache.blocked::no_mshrs            0                       # number of cycles access was blocked
system.cpu1.itb_walker_cache.blocked::no_targets            0                       # number of cycles access was blocked
system.cpu1.itb_walker_cache.avg_blocked_cycles::no_mshrs          nan                       # average number of cycles each access was blocked
system.cpu1.itb_walker_cache.avg_blocked_cycles::no_targets          nan                       # average number of cycles each access was blocked
system.cpu1.itb_walker_cache.replacements            0                       # number of replacements
system.cpu1.itb_walker_cache.power_state.pwrStateResidencyTicks::UNDEFINED  57676713500                       # Cumulative time (in ticks) in various power states
system.cpu1.itb_walker_cache.tags.tagsinuse            0                       # Cycle average of tags in use
system.cpu1.itb_walker_cache.tags.total_refs            0                       # Total number of references to valid blocks.
system.cpu1.itb_walker_cache.tags.sampled_refs            0                       # Sample count of references to valid blocks.
system.cpu1.itb_walker_cache.tags.avg_refs          nan                       # Average number of references to valid blocks.
system.cpu1.itb_walker_cache.tags.warmup_cycle            0                       # Cycle when the warmup percentage was hit.
system.cpu1.itb_walker_cache.tags.tag_accesses            0                       # Number of tag accesses
system.cpu1.itb_walker_cache.tags.data_accesses            0                       # Number of data accesses
system.cpu1.itb_walker_cache.tags.power_state.pwrStateResidencyTicks::UNDEFINED  57676713500                       # Cumulative time (in ticks) in various power states
system.cpu1.dtb_walker_cache.blocked_cycles::no_mshrs            0                       # number of cycles access was blocked
system.cpu1.dtb_walker_cache.blocked_cycles::no_targets            0                       # number of cycles access was blocked
system.cpu1.dtb_walker_cache.blocked::no_mshrs            0                       # number of cycles access was blocked
system.cpu1.dtb_walker_cache.blocked::no_targets            0                       # number of cycles access was blocked
system.cpu1.dtb_walker_cache.avg_blocked_cycles::no_mshrs          nan                       # average number of cycles each access was blocked
system.cpu1.dtb_walker_cache.avg_blocked_cycles::no_targets          nan                       # average number of cycles each access was blocked
system.cpu1.dtb_walker_cache.replacements            0                       # number of replacements
system.cpu1.dtb_walker_cache.power_state.pwrStateResidencyTicks::UNDEFINED  57676713500                       # Cumulative time (in ticks) in various power states
system.cpu1.dtb_walker_cache.tags.tagsinuse            0                       # Cycle average of tags in use
system.cpu1.dtb_walker_cache.tags.total_refs            0                       # Total number of references to valid blocks.
system.cpu1.dtb_walker_cache.tags.sampled_refs            0                       # Sample count of references to valid blocks.
system.cpu1.dtb_walker_cache.tags.avg_refs          nan                       # Average number of references to valid blocks.
system.cpu1.dtb_walker_cache.tags.warmup_cycle            0                       # Cycle when the warmup percentage was hit.
system.cpu1.dtb_walker_cache.tags.tag_accesses            0                       # Number of tag accesses
system.cpu1.dtb_walker_cache.tags.data_accesses            0                       # Number of data accesses
system.cpu1.dtb_walker_cache.tags.power_state.pwrStateResidencyTicks::UNDEFINED  57676713500                       # Cumulative time (in ticks) in various power states
system.cpu1.dcache.demand_hits::.cpu1.data      4339032                       # number of demand (read+write) hits
system.cpu1.dcache.demand_hits::total         4339032                       # number of demand (read+write) hits
system.cpu1.dcache.overall_hits::.cpu1.data      4339032                       # number of overall hits
system.cpu1.dcache.overall_hits::total        4339032                       # number of overall hits
system.cpu1.dcache.demand_misses::.cpu1.data      1181355                       # number of demand (read+write) misses
system.cpu1.dcache.demand_misses::total       1181355                       # number of demand (read+write) misses
system.cpu1.dcache.overall_misses::.cpu1.data      1181355                       # number of overall misses
system.cpu1.dcache.overall_misses::total      1181355                       # number of overall misses
system.cpu1.dcache.demand_miss_latency::.cpu1.data 103459420500                       # number of demand (read+write) miss cycles
system.cpu1.dcache.demand_miss_latency::total 103459420500                       # number of demand (read+write) miss cycles
system.cpu1.dcache.overall_miss_latency::.cpu1.data 103459420500                       # number of overall miss cycles
system.cpu1.dcache.overall_miss_latency::total 103459420500                       # number of overall miss cycles
system.cpu1.dcache.demand_accesses::.cpu1.data      5520387                       # number of demand (read+write) accesses
system.cpu1.dcache.demand_accesses::total      5520387                       # number of demand (read+write) accesses
system.cpu1.dcache.overall_accesses::.cpu1.data      5520387                       # number of overall (read+write) accesses
system.cpu1.dcache.overall_accesses::total      5520387                       # number of overall (read+write) accesses
system.cpu1.dcache.demand_miss_rate::.cpu1.data     0.213999                       # miss rate for demand accesses
system.cpu1.dcache.demand_miss_rate::total     0.213999                       # miss rate for demand accesses
system.cpu1.dcache.overall_miss_rate::.cpu1.data     0.213999                       # miss rate for overall accesses
system.cpu1.dcache.overall_miss_rate::total     0.213999                       # miss rate for overall accesses
system.cpu1.dcache.demand_avg_miss_latency::.cpu1.data 87576.909989                       # average overall miss latency
system.cpu1.dcache.demand_avg_miss_latency::total 87576.909989                       # average overall miss latency
system.cpu1.dcache.overall_avg_miss_latency::.cpu1.data 87576.909989                       # average overall miss latency
system.cpu1.dcache.overall_avg_miss_latency::total 87576.909989                       # average overall miss latency
system.cpu1.dcache.blocked_cycles::no_mshrs            0                       # number of cycles access was blocked
system.cpu1.dcache.blocked_cycles::no_targets            0                       # number of cycles access was blocked
system.cpu1.dcache.blocked::no_mshrs                0                       # number of cycles access was blocked
system.cpu1.dcache.blocked::no_targets              0                       # number of cycles access was blocked
system.cpu1.dcache.avg_blocked_cycles::no_mshrs          nan                       # average number of cycles each access was blocked
system.cpu1.dcache.avg_blocked_cycles::no_targets          nan                       # average number of cycles each access was blocked
system.cpu1.dcache.writebacks::.writebacks       585765                       # number of writebacks
system.cpu1.dcache.writebacks::total           585765                       # number of writebacks
system.cpu1.dcache.demand_mshr_hits::.cpu1.data       581465                       # number of demand (read+write) MSHR hits
system.cpu1.dcache.demand_mshr_hits::total       581465                       # number of demand (read+write) MSHR hits
system.cpu1.dcache.overall_mshr_hits::.cpu1.data       581465                       # number of overall MSHR hits
system.cpu1.dcache.overall_mshr_hits::total       581465                       # number of overall MSHR hits
system.cpu1.dcache.demand_mshr_misses::.cpu1.data       599890                       # number of demand (read+write) MSHR misses
system.cpu1.dcache.demand_mshr_misses::total       599890                       # number of demand (read+write) MSHR misses
system.cpu1.dcache.overall_mshr_misses::.cpu1.data       599890                       # number of overall MSHR misses
system.cpu1.dcache.overall_mshr_misses::total       599890                       # number of overall MSHR misses
system.cpu1.dcache.demand_mshr_miss_latency::.cpu1.data  51383114000                       # number of demand (read+write) MSHR miss cycles
system.cpu1.dcache.demand_mshr_miss_latency::total  51383114000                       # number of demand (read+write) MSHR miss cycles
system.cpu1.dcache.overall_mshr_miss_latency::.cpu1.data  51383114000                       # number of overall MSHR miss cycles
system.cpu1.dcache.overall_mshr_miss_latency::total  51383114000                       # number of overall MSHR miss cycles
system.cpu1.dcache.demand_mshr_miss_rate::.cpu1.data     0.108668                       # mshr miss rate for demand accesses
system.cpu1.dcache.demand_mshr_miss_rate::total     0.108668                       # mshr miss rate for demand accesses
system.cpu1.dcache.overall_mshr_miss_rate::.cpu1.data     0.108668                       # mshr miss rate for overall accesses
system.cpu1.dcache.overall_mshr_miss_rate::total     0.108668                       # mshr miss rate for overall accesses
system.cpu1.dcache.demand_avg_mshr_miss_latency::.cpu1.data 85654.226608                       # average overall mshr miss latency
system.cpu1.dcache.demand_avg_mshr_miss_latency::total 85654.226608                       # average overall mshr miss latency
system.cpu1.dcache.overall_avg_mshr_miss_latency::.cpu1.data 85654.226608                       # average overall mshr miss latency
system.cpu1.dcache.overall_avg_mshr_miss_latency::total 85654.226608                       # average overall mshr miss latency
system.cpu1.dcache.replacements                599873                       # number of replacements
system.cpu1.dcache.ReadReq_hits::.cpu1.data       766503                       # number of ReadReq hits
system.cpu1.dcache.ReadReq_hits::total         766503                       # number of ReadReq hits
system.cpu1.dcache.ReadReq_misses::.cpu1.data        16410                       # number of ReadReq misses
system.cpu1.dcache.ReadReq_misses::total        16410                       # number of ReadReq misses
system.cpu1.dcache.ReadReq_miss_latency::.cpu1.data    539638000                       # number of ReadReq miss cycles
system.cpu1.dcache.ReadReq_miss_latency::total    539638000                       # number of ReadReq miss cycles
system.cpu1.dcache.ReadReq_accesses::.cpu1.data       782913                       # number of ReadReq accesses(hits+misses)
system.cpu1.dcache.ReadReq_accesses::total       782913                       # number of ReadReq accesses(hits+misses)
system.cpu1.dcache.ReadReq_miss_rate::.cpu1.data     0.020960                       # miss rate for ReadReq accesses
system.cpu1.dcache.ReadReq_miss_rate::total     0.020960                       # miss rate for ReadReq accesses
system.cpu1.dcache.ReadReq_avg_miss_latency::.cpu1.data 32884.704449                       # average ReadReq miss latency
system.cpu1.dcache.ReadReq_avg_miss_latency::total 32884.704449                       # average ReadReq miss latency
system.cpu1.dcache.ReadReq_mshr_hits::.cpu1.data          307                       # number of ReadReq MSHR hits
system.cpu1.dcache.ReadReq_mshr_hits::total          307                       # number of ReadReq MSHR hits
system.cpu1.dcache.ReadReq_mshr_misses::.cpu1.data        16103                       # number of ReadReq MSHR misses
system.cpu1.dcache.ReadReq_mshr_misses::total        16103                       # number of ReadReq MSHR misses
system.cpu1.dcache.ReadReq_mshr_miss_latency::.cpu1.data    505359000                       # number of ReadReq MSHR miss cycles
system.cpu1.dcache.ReadReq_mshr_miss_latency::total    505359000                       # number of ReadReq MSHR miss cycles
system.cpu1.dcache.ReadReq_mshr_miss_rate::.cpu1.data     0.020568                       # mshr miss rate for ReadReq accesses
system.cpu1.dcache.ReadReq_mshr_miss_rate::total     0.020568                       # mshr miss rate for ReadReq accesses
system.cpu1.dcache.ReadReq_avg_mshr_miss_latency::.cpu1.data 31382.910017                       # average ReadReq mshr miss latency
system.cpu1.dcache.ReadReq_avg_mshr_miss_latency::total 31382.910017                       # average ReadReq mshr miss latency
system.cpu1.dcache.WriteReq_hits::.cpu1.data      3572529                       # number of WriteReq hits
system.cpu1.dcache.WriteReq_hits::total       3572529                       # number of WriteReq hits
system.cpu1.dcache.WriteReq_misses::.cpu1.data      1164945                       # number of WriteReq misses
system.cpu1.dcache.WriteReq_misses::total      1164945                       # number of WriteReq misses
system.cpu1.dcache.WriteReq_miss_latency::.cpu1.data 102919782500                       # number of WriteReq miss cycles
system.cpu1.dcache.WriteReq_miss_latency::total 102919782500                       # number of WriteReq miss cycles
system.cpu1.dcache.WriteReq_accesses::.cpu1.data      4737474                       # number of WriteReq accesses(hits+misses)
system.cpu1.dcache.WriteReq_accesses::total      4737474                       # number of WriteReq accesses(hits+misses)
[...]
system.mem_ctrls.bytesPerActivate::128-255         6770      3.23%      5.63% # Bytes accessed per row activation
system.mem_ctrls.bytesPerActivate::256-383         5253      2.51%      8.14% # Bytes accessed per row activation
system.mem_ctrls.bytesPerActivate::384-511         5069      2.42%     10.56% # Bytes accessed per row activation
system.mem_ctrls.bytesPerActivate::512-639         5075      2.42%     12.98% # Bytes accessed per row activation
system.mem_ctrls.bytesPerActivate::640-767         4873      2.33%     15.31% # Bytes accessed per row activation
system.mem_ctrls.bytesPerActivate::768-895         4889      2.33%     17.65% # Bytes accessed per row activation
system.mem_ctrls.bytesPerActivate::896-1023         5337      2.55%     20.19% # Bytes accessed per row activation
system.mem_ctrls.bytesPerActivate::1024-1151       167152     79.81%    100.00% # Bytes accessed per row activation
system.mem_ctrls.bytesPerActivate::total       209447                       # Bytes accessed per row activation
system.mem_ctrls.rdPerTurnAround::samples        92723                       # Reads before turning the bus around for writes
system.mem_ctrls.rdPerTurnAround::mean      16.162905                       # Reads before turning the bus around for writes
system.mem_ctrls.rdPerTurnAround::gmean     16.066130                       # Reads before turning the bus around for writes
system.mem_ctrls.rdPerTurnAround::stdev      4.167965                       # Reads before turning the bus around for writes
system.mem_ctrls.rdPerTurnAround::0-31          92612     99.88%     99.88% # Reads before turning the bus around for writes
system.mem_ctrls.rdPerTurnAround::32-63            51      0.06%     99.94% # Reads before turning the bus around for writes
system.mem_ctrls.rdPerTurnAround::64-95            19      0.02%     99.96% # Reads before turning the bus around for writes
system.mem_ctrls.rdPerTurnAround::96-127           16      0.02%     99.97% # Reads before turning the bus around for writes
system.mem_ctrls.rdPerTurnAround::128-159            6      0.01%     99.98% # Reads before turning the bus around for writes
system.mem_ctrls.rdPerTurnAround::160-191            4      0.00%     99.98% # Reads before turning the bus around for writes
system.mem_ctrls.rdPerTurnAround::192-223            9      0.01%     99.99% # Reads before turning the bus around for writes
system.mem_ctrls.rdPerTurnAround::224-255            2      0.00%    100.00% # Reads before turning the bus around for writes
system.mem_ctrls.rdPerTurnAround::256-287            2      0.00%    100.00% # Reads before turning the bus around for writes
system.mem_ctrls.rdPerTurnAround::288-319            1      0.00%    100.00% # Reads before turning the bus around for writes
system.mem_ctrls.rdPerTurnAround::640-671            1      0.00%    100.00% # Reads before turning the bus around for writes
system.mem_ctrls.rdPerTurnAround::total         92723                       # Reads before turning the bus around for writes
system.mem_ctrls.wrPerTurnAround::samples        92723                       # Writes before turning the bus around for reads
system.mem_ctrls.wrPerTurnAround::mean      16.037973                       # Writes before turning the bus around for reads
system.mem_ctrls.wrPerTurnAround::gmean     16.034092                       # Writes before turning the bus around for reads
system.mem_ctrls.wrPerTurnAround::stdev      0.380627                       # Writes before turning the bus around for reads
system.mem_ctrls.wrPerTurnAround::16            91695     98.89%     98.89% # Writes before turning the bus around for reads
system.mem_ctrls.wrPerTurnAround::17              116      0.13%     99.02% # Writes before turning the bus around for reads
system.mem_ctrls.wrPerTurnAround::18               63      0.07%     99.08% # Writes before turning the bus around for reads
system.mem_ctrls.wrPerTurnAround::19              324      0.35%     99.43% # Writes before turning the bus around for reads
system.mem_ctrls.wrPerTurnAround::20              328      0.35%     99.79% # Writes before turning the bus around for reads
system.mem_ctrls.wrPerTurnAround::21              187      0.20%     99.99% # Writes before turning the bus around for reads
system.mem_ctrls.wrPerTurnAround::22               10      0.01%    100.00% # Writes before turning the bus around for reads
system.mem_ctrls.wrPerTurnAround::total         92723                       # Writes before turning the bus around for reads
system.mem_ctrls.bytesReadDRAM               95915584                       # Total number of bytes read from DRAM
system.mem_ctrls.bytesReadWrQ                    8896                       # Total number of bytes read from write queue
system.mem_ctrls.bytesWritten                95173696                       # Total number of bytes written to DRAM
system.mem_ctrls.bytesReadSys                95924480                       # Total read bytes from the system interface side
system.mem_ctrls.bytesWrittenSys             95177664                       # Total written bytes from the system interface side
system.mem_ctrls.avgRdBW                      1662.99                       # Average DRAM read bandwidth in MiByte/s
system.mem_ctrls.avgWrBW                      1650.12                       # Average achieved write bandwidth in MiByte/s
system.mem_ctrls.avgRdBWSys                   1663.14                       # Average system read bandwidth in MiByte/s
system.mem_ctrls.avgWrBWSys                   1650.19                       # Average system write bandwidth in MiByte/s
system.mem_ctrls.peakBW                      12800.00                       # Theoretical peak bandwidth in MiByte/s
system.mem_ctrls.busUtil                        25.88                       # Data bus utilization in percentage
system.mem_ctrls.busUtilRead                    12.99                       # Data bus utilization in percentage for reads
system.mem_ctrls.busUtilWrite                   12.89                       # Data bus utilization in percentage for writes
system.mem_ctrls.totGap                   57676691500                       # Total gap between requests
system.mem_ctrls.avgGap                      19315.89                       # Average gap between requests
system.mem_ctrls.masterReadBytes::.cpu0.inst       111104                       # Per-master bytes read from memory
system.mem_ctrls.masterReadBytes::.cpu0.data     58356032                       # Per-master bytes read from memory
system.mem_ctrls.masterReadBytes::.cpu1.inst       155008                       # Per-master bytes read from memory
system.mem_ctrls.masterReadBytes::.cpu1.data     37293440                       # Per-master bytes read from memory
system.mem_ctrls.masterWriteBytes::.writebacks     95173696                       # Per-master bytes write to memory
system.mem_ctrls.masterReadRate::.cpu0.inst 1926323.350584113970                       # Per-master bytes read from memory rate (Bytes/sec)
system.mem_ctrls.masterReadRate::.cpu0.data 1011778037.595710158348                       # Per-master bytes read from memory rate (Bytes/sec)
system.mem_ctrls.masterReadRate::.cpu1.inst 2687531.771379449405                       # Per-master bytes read from memory rate (Bytes/sec)
system.mem_ctrls.masterReadRate::.cpu1.data 646594400.702113509178                       # Per-master bytes read from memory rate (Bytes/sec)
system.mem_ctrls.masterWriteRate::.writebacks 1650123424.594919204712                       # Per-master bytes write to memory rate (Bytes/sec)
system.mem_ctrls.masterReadAccesses::.cpu0.inst         1736                       # Per-master read serviced memory accesses
system.mem_ctrls.masterReadAccesses::.cpu0.data       911832                       # Per-master read serviced memory accesses
system.mem_ctrls.masterReadAccesses::.cpu1.inst         2422                       # Per-master read serviced memory accesses
system.mem_ctrls.masterReadAccesses::.cpu1.data       582830                       # Per-master read serviced memory accesses
system.mem_ctrls.masterWriteAccesses::.writebacks      1487151                       # Per-master write serviced memory accesses
system.mem_ctrls.masterReadTotalLat::.cpu0.inst     50329000                       # Per-master read total memory access latency
system.mem_ctrls.masterReadTotalLat::.cpu0.data  30639768250                       # Per-master read total memory access latency
system.mem_ctrls.masterReadTotalLat::.cpu1.inst     75494000                       # Per-master read total memory access latency
system.mem_ctrls.masterReadTotalLat::.cpu1.data  20147865500                       # Per-master read total memory access latency
system.mem_ctrls.masterWriteTotalLat::.writebacks 1468498194250                       # Per-master write total memory access latency
system.mem_ctrls.masterReadAvgLat::.cpu0.inst     28991.36                       # Per-master read average memory access latency
system.mem_ctrls.masterReadAvgLat::.cpu0.data     33602.43                       # Per-master read average memory access latency
system.mem_ctrls.masterReadAvgLat::.cpu1.inst     31170.11                       # Per-master read average memory access latency
system.mem_ctrls.masterReadAvgLat::.cpu1.data     34569.03                       # Per-master read average memory access latency
system.mem_ctrls.masterWriteAvgLat::.writebacks    987457.36                       # Per-master write average memory access latency
system.mem_ctrls.pageHitRate                    92.98                       # Row buffer hit rate, read and write combined
system.mem_ctrls.rank1.actEnergy            747265260                       # Energy for activate commands per rank (pJ)
system.mem_ctrls.rank1.preEnergy            397173315                       # Energy for precharge commands per rank (pJ)
system.mem_ctrls.rank1.readEnergy          5348952420                       # Energy for read commands per rank (pJ)
system.mem_ctrls.rank1.writeEnergy         3879504000                       # Energy for write commands per rank (pJ)
system.mem_ctrls.rank1.refreshEnergy     4552638480.000001                       # Energy for refresh commands per rank (pJ)
system.mem_ctrls.rank1.actBackEnergy      21948620070                       # Energy for active background per rank (pJ)
system.mem_ctrls.rank1.preBackEnergy       3664809600                       # Energy for precharge background per rank (pJ)
system.mem_ctrls.rank1.actPowerDownEnergy            0                       # Energy for active power-down per rank (pJ)
system.mem_ctrls.rank1.prePowerDownEnergy            0                       # Energy for precharge power-down per rank (pJ)
system.mem_ctrls.rank1.selfRefreshEnergy            0                       # Energy for self refresh per rank (pJ)
system.mem_ctrls.rank1.totalEnergy        40538963145                       # Total energy per rank (pJ)
system.mem_ctrls.rank1.averagePower        702.865345                       # Core power per rank (mW)
system.mem_ctrls.rank1.totalIdleTime                0                       # Total Idle time Per DRAM Rank
system.mem_ctrls.rank1.memoryStateTime::IDLE   9161556250                       # Time in different power states
system.mem_ctrls.rank1.memoryStateTime::REF   1925820000                       # Time in different power states
system.mem_ctrls.rank1.memoryStateTime::SREF            0                       # Time in different power states
system.mem_ctrls.rank1.memoryStateTime::PRE_PDN            0                       # Time in different power states
system.mem_ctrls.rank1.memoryStateTime::ACT  46589337250                       # Time in different power states
system.mem_ctrls.rank1.memoryStateTime::ACT_PDN            0                       # Time in different power states
system.mem_ctrls.rank0.actEnergy            748200600                       # Energy for activate commands per rank (pJ)
system.mem_ctrls.rank0.preEnergy            397678050                       # Energy for precharge commands per rank (pJ)
system.mem_ctrls.rank0.readEnergy          5351629920                       # Energy for read commands per rank (pJ)
system.mem_ctrls.rank0.writeEnergy         3883100580                       # Energy for write commands per rank (pJ)
system.mem_ctrls.rank0.refreshEnergy     4552638480.000001                       # Energy for refresh commands per rank (pJ)
system.mem_ctrls.rank0.actBackEnergy      21928488810                       # Energy for active background per rank (pJ)
system.mem_ctrls.rank0.preBackEnergy       3681762240                       # Energy for precharge background per rank (pJ)
system.mem_ctrls.rank0.actPowerDownEnergy            0                       # Energy for active power-down per rank (pJ)
system.mem_ctrls.rank0.prePowerDownEnergy            0                       # Energy for precharge power-down per rank (pJ)
system.mem_ctrls.rank0.selfRefreshEnergy            0                       # Energy for self refresh per rank (pJ)
system.mem_ctrls.rank0.totalEnergy        40543498680                       # Total energy per rank (pJ)
system.mem_ctrls.rank0.averagePower        702.943982                       # Core power per rank (mW)
system.mem_ctrls.rank0.totalIdleTime                0                       # Total Idle time Per DRAM Rank
system.mem_ctrls.rank0.memoryStateTime::IDLE   9211268250                       # Time in different power states
system.mem_ctrls.rank0.memoryStateTime::REF   1925820000                       # Time in different power states
system.mem_ctrls.rank0.memoryStateTime::SREF            0                       # Time in different power states
system.mem_ctrls.rank0.memoryStateTime::PRE_PDN            0                       # Time in different power states
system.mem_ctrls.rank0.memoryStateTime::ACT  46539625250                       # Time in different power states
system.mem_ctrls.rank0.memoryStateTime::ACT_PDN            0                       # Time in different power states
system.mem_ctrls.power_state.pwrStateResidencyTicks::UNDEFINED  57676713500                       # Cumulative time (in ticks) in various power states
system.cpu_clk_domain.clock                       500                       # Clock period in ticks
system.tol2bus.trans_dist::ReadResp             45099                       # Transaction distribution
system.tol2bus.trans_dist::WritebackDirty      2985846                       # Transaction distribution
system.tol2bus.trans_dist::WritebackClean        19924                       # Transaction distribution
system.tol2bus.trans_dist::CleanEvict           32172                       # Transaction distribution
system.tol2bus.trans_dist::ReadExReq          1494327                       # Transaction distribution
system.tol2bus.trans_dist::ReadExResp         1494325                       # Transaction distribution
system.tol2bus.trans_dist::ReadCleanReq         19956                       # Transaction distribution
system.tol2bus.trans_dist::ReadSharedReq        25143                       # Transaction distribution
system.tol2bus.pkt_count_system.cpu0.icache.mem_side::system.l2.cpu_side        33338                       # Packet count per connected master and slave (bytes)
system.tol2bus.pkt_count_system.cpu0.dcache.mem_side::system.l2.cpu_side      2758722                       # Packet count per connected master and slave (bytes)
system.tol2bus.pkt_count_system.cpu1.icache.mem_side::system.l2.cpu_side        26498                       # Packet count per connected master and slave (bytes)
system.tol2bus.pkt_count_system.cpu1.dcache.mem_side::system.l2.cpu_side      1799652                       # Packet count per connected master and slave (bytes)
system.tol2bus.pkt_count::total               4618210                       # Packet count per connected master and slave (bytes)
system.tol2bus.pkt_size_system.cpu0.icache.mem_side::system.l2.cpu_side      1422080                       # Cumulative packet size per connected master and slave (bytes)
system.tol2bus.pkt_size_system.cpu0.dcache.mem_side::system.l2.cpu_side    117280576                       # Cumulative packet size per connected master and slave (bytes)
system.tol2bus.pkt_size_system.cpu1.icache.mem_side::system.l2.cpu_side      1130240                       # Cumulative packet size per connected master and slave (bytes)
system.tol2bus.pkt_size_system.cpu1.dcache.mem_side::system.l2.cpu_side     75881856                       # Cumulative packet size per connected master and slave (bytes)
system.tol2bus.pkt_size::total              195714752                       # Cumulative packet size per connected master and slave (bytes)
system.tol2bus.snoops                         1498582                       # Total snoops (count)
system.tol2bus.snoopTraffic                  95177664                       # Total snoop traffic (bytes)
system.tol2bus.snoop_fanout::samples          3038008                       # Request fanout histogram
system.tol2bus.snoop_fanout::mean            0.000489                       # Request fanout histogram
system.tol2bus.snoop_fanout::stdev           0.022111                       # Request fanout histogram
system.tol2bus.snoop_fanout::underflows             0      0.00%      0.00% # Request fanout histogram
system.tol2bus.snoop_fanout::0                3036522     99.95%     99.95% # Request fanout histogram
system.tol2bus.snoop_fanout::1                   1486      0.05%    100.00% # Request fanout histogram
system.tol2bus.snoop_fanout::2                      0      0.00%    100.00% # Request fanout histogram
system.tol2bus.snoop_fanout::3                      0      0.00%    100.00% # Request fanout histogram
system.tol2bus.snoop_fanout::4                      0      0.00%    100.00% # Request fanout histogram
system.tol2bus.snoop_fanout::5                      0      0.00%    100.00% # Request fanout histogram
system.tol2bus.snoop_fanout::6                      0      0.00%    100.00% # Request fanout histogram
system.tol2bus.snoop_fanout::7                      0      0.00%    100.00% # Request fanout histogram
system.tol2bus.snoop_fanout::8                      0      0.00%    100.00% # Request fanout histogram
system.tol2bus.snoop_fanout::overflows              0      0.00%    100.00% # Request fanout histogram
system.tol2bus.snoop_fanout::min_value              0                       # Request fanout histogram
system.tol2bus.snoop_fanout::max_value              1                       # Request fanout histogram
system.tol2bus.snoop_fanout::total            3038008                       # Request fanout histogram
system.tol2bus.reqLayer0.occupancy         3058012000                       # Layer occupancy (ticks)
system.tol2bus.reqLayer0.utilization              5.3                       # Layer utilization (%)
system.tol2bus.respLayer5.occupancy         899855456                       # Layer occupancy (ticks)
system.tol2bus.respLayer5.utilization             1.6                       # Layer utilization (%)
system.tol2bus.respLayer4.occupancy          13312387                       # Layer occupancy (ticks)
system.tol2bus.respLayer4.utilization             0.0                       # Layer utilization (%)
system.tol2bus.respLayer1.occupancy        1379424387                       # Layer occupancy (ticks)
system.tol2bus.respLayer1.utilization             2.4                       # Layer utilization (%)
system.tol2bus.respLayer0.occupancy          16692466                       # Layer occupancy (ticks)
system.tol2bus.respLayer0.utilization             0.0                       # Layer utilization (%)
system.tol2bus.power_state.pwrStateResidencyTicks::UNDEFINED  57676713500                       # Cumulative time (in ticks) in various power states

---------- End Simulation Statistics   ----------
