
---------- Begin Simulation Statistics ----------
final_tick                                46444216500                       # Number of ticks from beginning of simulation (restored from checkpoints and never reset)
host_inst_rate                                 194439                       # Simulator instruction rate (inst/s)
host_mem_usage                                4491040                       # Number of bytes of host memory used
host_op_rate                                   352149                       # Simulator op (including micro ops) rate (op/s)
host_seconds                                    92.57                       # Real time elapsed on the host
host_tick_rate                              501735017                       # Simulator tick rate (ticks/s)
sim_freq                                 1000000000000                       # Frequency of simulated ticks
sim_insts                                    17998691                       # Number of instructions simulated
sim_ops                                      32597408                       # Number of ops (including micro ops) simulated
sim_seconds                                  0.046444                       # Number of seconds simulated
sim_ticks                                 46444216500                       # Number of ticks simulated
system.cpu0.branchPred.BTBCorrect                   0                       # Number of correct BTB predictions (this stat may not work properly.
system.cpu0.branchPred.BTBHitPct                  nan                       # BTB Hit Percentage
system.cpu0.branchPred.BTBHits                      0                       # Number of BTB hits
system.cpu0.branchPred.BTBLookups                   0                       # Number of BTB lookups
system.cpu0.branchPred.RASInCorrect                 0                       # Number of incorrect RAS predictions.
system.cpu0.branchPred.condIncorrect               40                       # Number of conditional branches incorrect
system.cpu0.branchPred.condPredicted               85                       # Number of conditional branches predicted
system.cpu0.branchPred.indirectHits                 0                       # Number of indirect target hits.
system.cpu0.branchPred.indirectLookups             25                       # Number of indirect predictor lookups.
system.cpu0.branchPred.indirectMisses              25                       # Number of indirect misses.
system.cpu0.branchPred.lookups                     85                       # Number of BP lookups
system.cpu0.branchPred.usedRAS                      0                       # Number of times the RAS was used to get a target.
system.cpu0.branchPredindirectMispredicted           11                       # Number of mispredicted indirect branches.
system.cpu0.committedInsts                    7998691                       # Number of instructions committed
system.cpu0.committedOps                     11619866                       # Number of ops (including micro ops) committed
system.cpu0.cpi                             11.612943                       # CPI: cycles per instruction
system.cpu0.discardedOps                      1544576                       # Number of ops (including micro ops) which were discarded before commit
system.cpu0.dtb.rdAccesses                    1500922                       # TLB accesses on read requests
system.cpu0.dtb.rdMisses                       291544                       # TLB misses on read requests
system.cpu0.dtb.wrAccesses                    5812617                       # TLB accesses on write requests
system.cpu0.dtb.wrMisses                        22673                       # TLB misses on write requests
system.cpu0.fetch2.amo_instructions                 0                       # Number of memory atomic instructions successfully decoded
system.cpu0.fetch2.fp_instructions                  0                       # Number of floating point instructions successfully decoded
system.cpu0.fetch2.int_instructions                 8                       # Number of integer instructions successfully decoded
system.cpu0.fetch2.load_instructions                0                       # Number of memory load instructions successfully decoded
system.cpu0.fetch2.store_instructions               0                       # Number of memory store instructions successfully decoded
system.cpu0.fetch2.vec_instructions                 0                       # Number of SIMD instructions successfully decoded
system.cpu0.idleCycles                       76881822                       # Total number of cycles that the object has spent stopped
system.cpu0.ipc                              0.086111                       # IPC: instructions per cycle
system.cpu0.itb.rdAccesses                          0                       # TLB accesses on read requests
system.cpu0.itb.rdMisses                            0                       # TLB misses on read requests
system.cpu0.itb.wrAccesses                    1854757                       # TLB accesses on write requests
system.cpu0.itb.wrMisses                          270                       # TLB misses on write requests
system.cpu0.numCycles                        92888344                       # number of cpu cycles simulated
system.cpu0.numFetchSuspends                        0                       # Number of times Execute suspended instruction fetching
system.cpu0.numWorkItemsCompleted                   0                       # number of work items this cpu completed
system.cpu0.numWorkItemsStarted                     0                       # number of work items this cpu started
system.cpu0.op_class_0::No_OpClass               1997      0.02%      0.02% # Class of committed instruction
system.cpu0.op_class_0::IntAlu                4017155     34.57%     34.59% # Class of committed instruction
system.cpu0.op_class_0::IntMult                    36      0.00%     34.59% # Class of committed instruction
system.cpu0.op_class_0::IntDiv                   1447      0.01%     34.60% # Class of committed instruction
system.cpu0.op_class_0::FloatAdd               868344      7.47%     42.07% # Class of committed instruction
system.cpu0.op_class_0::FloatCmp                    0      0.00%     42.07% # Class of committed instruction
system.cpu0.op_class_0::FloatCvt                  112      0.00%     42.08% # Class of committed instruction
system.cpu0.op_class_0::FloatMult                   0      0.00%     42.08% # Class of committed instruction
system.cpu0.op_class_0::FloatMultAcc                0      0.00%     42.08% # Class of committed instruction
system.cpu0.op_class_0::FloatDiv                    0      0.00%     42.08% # Class of committed instruction
system.cpu0.op_class_0::FloatMisc                   0      0.00%     42.08% # Class of committed instruction
system.cpu0.op_class_0::FloatSqrt                   0      0.00%     42.08% # Class of committed instruction
system.cpu0.op_class_0::SimdAdd                  1140      0.01%     42.09% # Class of committed instruction
system.cpu0.op_class_0::SimdAddAcc                  0      0.00%     42.09% # Class of committed instruction
system.cpu0.op_class_0::SimdAlu                  1367      0.01%     42.10% # Class of committed instruction
system.cpu0.op_class_0::SimdCmp                    12      0.00%     42.10% # Class of committed instruction
system.cpu0.op_class_0::SimdCvt                  1866      0.02%     42.11% # Class of committed instruction
system.cpu0.op_class_0::SimdMisc                 1287      0.01%     42.12% # Class of committed instruction
system.cpu0.op_class_0::SimdMult                    0      0.00%     42.12% # Class of committed instruction
system.cpu0.op_class_0::SimdMultAcc                 0      0.00%     42.12% # Class of committed instruction
system.cpu0.op_class_0::SimdShift                 426      0.00%     42.13% # Class of committed instruction
system.cpu0.op_class_0::SimdShiftAcc                0      0.00%     42.13% # Class of committed instruction
system.cpu0.op_class_0::SimdDiv                     0      0.00%     42.13% # Class of committed instruction
system.cpu0.op_class_0::SimdSqrt                    0      0.00%     42.13% # Class of committed instruction
system.cpu0.op_class_0::SimdFloatAdd                0      0.00%     42.13% # Class of committed instruction
system.cpu0.op_class_0::SimdFloatAlu                0      0.00%     42.13% # Class of committed instruction
system.cpu0.op_class_0::SimdFloatCmp                0      0.00%     42.13% # Class of committed instruction
system.cpu0.op_class_0::SimdFloatCvt                2      0.00%     42.13% # Class of committed instruction
system.cpu0.op_class_0::SimdFloatDiv                0      0.00%     42.13% # Class of committed instruction
system.cpu0.op_class_0::SimdFloatMisc               0      0.00%     42.13% # Class of committed instruction
system.cpu0.op_class_0::SimdFloatMult               0      0.00%     42.13% # Class of committed instruction
system.cpu0.op_class_0::SimdFloatMultAcc            0      0.00%     42.13% # Class of committed instruction
system.cpu0.op_class_0::SimdFloatSqrt               0      0.00%     42.13% # Class of committed instruction
system.cpu0.op_class_0::SimdReduceAdd               0      0.00%     42.13% # Class of committed instruction
system.cpu0.op_class_0::SimdReduceAlu               0      0.00%     42.13% # Class of committed instruction
system.cpu0.op_class_0::SimdReduceCmp               0      0.00%     42.13% # Class of committed instruction
system.cpu0.op_class_0::SimdFloatReduceAdd            0      0.00%     42.13% # Class of committed instruction
system.cpu0.op_class_0::SimdFloatReduceCmp            0      0.00%     42.13% # Class of committed instruction
system.cpu0.op_class_0::SimdAes                     0      0.00%     42.13% # Class of committed instruction
system.cpu0.op_class_0::SimdAesMix                  0      0.00%     42.13% # Class of committed instruction
system.cpu0.op_class_0::SimdSha1Hash                0      0.00%     42.13% # Class of committed instruction
system.cpu0.op_class_0::SimdSha1Hash2               0      0.00%     42.13% # Class of committed instruction
system.cpu0.op_class_0::SimdSha256Hash              0      0.00%     42.13% # Class of committed instruction
system.cpu0.op_class_0::SimdSha256Hash2             0      0.00%     42.13% # Class of committed instruction
system.cpu0.op_class_0::SimdShaSigma2               0      0.00%     42.13% # Class of committed instruction
system.cpu0.op_class_0::SimdShaSigma3               0      0.00%     42.13% # Class of committed instruction
system.cpu0.op_class_0::SimdPredAlu                 0      0.00%     42.13% # Class of committed instruction
system.cpu0.op_class_0::MemRead                 42409      0.36%     42.49% # Class of committed instruction
system.cpu0.op_class_0::MemWrite               312381      2.69%     45.18% # Class of committed instruction
system.cpu0.op_class_0::FloatMemRead           870426      7.49%     52.67% # Class of committed instruction
system.cpu0.op_class_0::FloatMemWrite         5499459     47.33%    100.00% # Class of committed instruction
system.cpu0.op_class_0::IprAccess                   0      0.00%    100.00% # Class of committed instruction
system.cpu0.op_class_0::InstPrefetch                0      0.00%    100.00% # Class of committed instruction
system.cpu0.op_class_0::total                11619866                       # Class of committed instruction
system.cpu0.tickCycles                       16006522                       # Number of cycles that the object actually ticked
system.cpu0.workload.numSyscalls                   40                       # Number of system calls
system.cpu1.branchPred.BTBCorrect                   0                       # Number of correct BTB predictions (this stat may not work properly.
system.cpu1.branchPred.BTBHitPct                  nan                       # BTB Hit Percentage
system.cpu1.branchPred.BTBHits                      0                       # Number of BTB hits
system.cpu1.branchPred.BTBLookups                   0                       # Number of BTB lookups
system.cpu1.branchPred.RASInCorrect                 0                       # Number of incorrect RAS predictions.
system.cpu1.branchPred.condIncorrect               92                       # Number of conditional branches incorrect
system.cpu1.branchPred.condPredicted              285                       # Number of conditional branches predicted
system.cpu1.branchPred.indirectHits                 0                       # Number of indirect target hits.
system.cpu1.branchPred.indirectLookups             57                       # Number of indirect predictor lookups.
system.cpu1.branchPred.indirectMisses              57                       # Number of indirect misses.
system.cpu1.branchPred.lookups                    285                       # Number of BP lookups
system.cpu1.branchPred.usedRAS                      0                       # Number of times the RAS was used to get a target.
system.cpu1.branchPredindirectMispredicted           39                       # Number of mispredicted indirect branches.
system.cpu1.committedInsts                   10000000                       # Number of instructions committed
system.cpu1.committedOps                     20977542                       # Number of ops (including micro ops) committed
system.cpu1.cpi                              9.288843                       # CPI: cycles per instruction
system.cpu1.discardedOps                      5693296                       # Number of ops (including micro ops) which were discarded before commit
system.cpu1.dtb.rdAccesses                    2460439                       # TLB accesses on read requests
system.cpu1.dtb.rdMisses                        35080                       # TLB misses on read requests
system.cpu1.dtb.wrAccesses                    1493532                       # TLB accesses on write requests
system.cpu1.dtb.wrMisses                          537                       # TLB misses on write requests
system.cpu1.fetch2.amo_instructions                 0                       # Number of memory atomic instructions successfully decoded
system.cpu1.fetch2.fp_instructions                  0                       # Number of floating point instructions successfully decoded
system.cpu1.fetch2.int_instructions                29                       # Number of integer instructions successfully decoded
system.cpu1.fetch2.load_instructions                0                       # Number of memory load instructions successfully decoded
system.cpu1.fetch2.store_instructions               0                       # Number of memory store instructions successfully decoded
system.cpu1.fetch2.vec_instructions                 0                       # Number of SIMD instructions successfully decoded
system.cpu1.idleCycles                       52290705                       # Total number of cycles that the object has spent stopped
system.cpu1.ipc                              0.107656                       # IPC: instructions per cycle
system.cpu1.itb.rdAccesses                          0                       # TLB accesses on read requests
system.cpu1.itb.rdMisses                            0                       # TLB misses on read requests
system.cpu1.itb.wrAccesses                    5347890                       # TLB accesses on write requests
system.cpu1.itb.wrMisses                          618                       # TLB misses on write requests
system.cpu1.numCycles                        92888433                       # number of cpu cycles simulated
system.cpu1.numFetchSuspends                        0                       # Number of times Execute suspended instruction fetching
system.cpu1.numWorkItemsCompleted                   0                       # number of work items this cpu completed
system.cpu1.numWorkItemsStarted                     0                       # number of work items this cpu started
system.cpu1.op_class_0::No_OpClass             692868      3.30%      3.30% # Class of committed instruction
system.cpu1.op_class_0::IntAlu               16308207     77.74%     81.04% # Class of committed instruction
system.cpu1.op_class_0::IntMult                  2368      0.01%     81.06% # Class of committed instruction
system.cpu1.op_class_0::IntDiv                 162889      0.78%     81.83% # Class of committed instruction
system.cpu1.op_class_0::FloatAdd                25090      0.12%     81.95% # Class of committed instruction
system.cpu1.op_class_0::FloatCmp                    0      0.00%     81.95% # Class of committed instruction
system.cpu1.op_class_0::FloatCvt                 2096      0.01%     81.96% # Class of committed instruction
system.cpu1.op_class_0::FloatMult                   0      0.00%     81.96% # Class of committed instruction
system.cpu1.op_class_0::FloatMultAcc                0      0.00%     81.96% # Class of committed instruction
system.cpu1.op_class_0::FloatDiv                    0      0.00%     81.96% # Class of committed instruction
system.cpu1.op_class_0::FloatMisc                   0      0.00%     81.96% # Class of committed instruction
system.cpu1.op_class_0::FloatSqrt                   0      0.00%     81.96% # Class of committed instruction
system.cpu1.op_class_0::SimdAdd                 24906      0.12%     82.08% # Class of committed instruction
system.cpu1.op_class_0::SimdAddAcc                  0      0.00%     82.08% # Class of committed instruction
system.cpu1.op_class_0::SimdAlu                 86613      0.41%     82.49% # Class of committed instruction
system.cpu1.op_class_0::SimdCmp                  6936      0.03%     82.53% # Class of committed instruction
system.cpu1.op_class_0::SimdCvt                 95642      0.46%     82.98% # Class of committed instruction
system.cpu1.op_class_0::SimdMisc                89955      0.43%     83.41% # Class of committed instruction
system.cpu1.op_class_0::SimdMult                    0      0.00%     83.41% # Class of committed instruction
system.cpu1.op_class_0::SimdMultAcc                 0      0.00%     83.41% # Class of committed instruction
system.cpu1.op_class_0::SimdShift                6163      0.03%     83.44% # Class of committed instruction
system.cpu1.op_class_0::SimdShiftAcc                0      0.00%     83.44% # Class of committed instruction
system.cpu1.op_class_0::SimdDiv                     0      0.00%     83.44% # Class of committed instruction
system.cpu1.op_class_0::SimdSqrt                    0      0.00%     83.44% # Class of committed instruction
system.cpu1.op_class_0::SimdFloatAdd             1714      0.01%     83.45% # Class of committed instruction
system.cpu1.op_class_0::SimdFloatAlu                0      0.00%     83.45% # Class of committed instruction
system.cpu1.op_class_0::SimdFloatCmp                0      0.00%     83.45% # Class of committed instruction
system.cpu1.op_class_0::SimdFloatCvt             8287      0.04%     83.49% # Class of committed instruction
system.cpu1.op_class_0::SimdFloatDiv                0      0.00%     83.49% # Class of committed instruction
system.cpu1.op_class_0::SimdFloatMisc               0      0.00%     83.49% # Class of committed instruction
system.cpu1.op_class_0::SimdFloatMult              82      0.00%     83.49% # Class of committed instruction
system.cpu1.op_class_0::SimdFloatMultAcc            0      0.00%     83.49% # Class of committed instruction
system.cpu1.op_class_0::SimdFloatSqrt               0      0.00%     83.49% # Class of committed instruction
system.cpu1.op_class_0::SimdReduceAdd               0      0.00%     83.49% # Class of committed instruction
system.cpu1.op_class_0::SimdReduceAlu               0      0.00%     83.49% # Class of committed instruction
system.cpu1.op_class_0::SimdReduceCmp               0      0.00%     83.49% # Class of committed instruction
system.cpu1.op_class_0::SimdFloatReduceAdd            0      0.00%     83.49% # Class of committed instruction
system.cpu1.op_class_0::SimdFloatReduceCmp            0      0.00%     83.49% # Class of committed instruction
system.cpu1.op_class_0::SimdAes                     0      0.00%     83.49% # Class of committed instruction
system.cpu1.op_class_0::SimdAesMix                  0      0.00%     83.49% # Class of committed instruction
system.cpu1.op_class_0::SimdSha1Hash                0      0.00%     83.49% # Class of committed instruction
system.cpu1.op_class_0::SimdSha1Hash2               0      0.00%     83.49% # Class of committed instruction
system.cpu1.op_class_0::SimdSha256Hash              0      0.00%     83.49% # Class of committed instruction
system.cpu1.op_class_0::SimdSha256Hash2             0      0.00%     83.49% # Class of committed instruction
system.cpu1.op_class_0::SimdShaSigma2               0      0.00%     83.49% # Class of committed instruction
system.cpu1.op_class_0::SimdShaSigma3               0      0.00%     83.49% # Class of committed instruction
system.cpu1.op_class_0::SimdPredAlu                 0      0.00%     83.49% # Class of committed instruction
system.cpu1.op_class_0::MemRead               1890985      9.01%     92.50% # Class of committed instruction
system.cpu1.op_class_0::MemWrite              1365189      6.51%     99.01% # Class of committed instruction
system.cpu1.op_class_0::FloatMemRead           156640      0.75%     99.76% # Class of committed instruction
system.cpu1.op_class_0::FloatMemWrite           50912      0.24%    100.00% # Class of committed instruction
system.cpu1.op_class_0::IprAccess                   0      0.00%    100.00% # Class of committed instruction
system.cpu1.op_class_0::InstPrefetch                0      0.00%    100.00% # Class of committed instruction
system.cpu1.op_class_0::total                20977542                       # Class of committed instruction
system.cpu1.tickCycles                       40597728                       # Number of cycles that the object actually ticked
system.cpu1.workload.numSyscalls                   92                       # Number of system calls
system.membus.snoop_filter.hit_multi_requests            0                       # Number of requests hitting in the snoop filter with multiple (>1) holders of the requested data.
system.membus.snoop_filter.hit_multi_snoops            0                       # Number of snoops hitting in the snoop filter with multiple (>1) holders of the requested data.
system.membus.snoop_filter.hit_single_requests       952436                       # Number of requests hitting in the snoop filter with a single holder of the requested data.
system.membus.snoop_filter.hit_single_snoops            0                       # Number of snoops hitting in the snoop filter with a single holder of the requested data.
system.membus.snoop_filter.tot_requests       1905915                       # Total number of requests made to the snoop filter.
system.membus.snoop_filter.tot_snoops               0                       # Total number of snoops made to the snoop filter.
system.tol2bus.snoop_filter.hit_multi_requests            0                       # Number of requests hitting in the snoop filter with multiple (>1) holders of the requested data.
system.tol2bus.snoop_filter.hit_multi_snoops            0                       # Number of snoops hitting in the snoop filter with multiple (>1) holders of the requested data.
system.tol2bus.snoop_filter.hit_single_requests      2269051                       # Number of requests hitting in the snoop filter with a single holder of the requested data.
system.tol2bus.snoop_filter.hit_single_snoops          863                       # Number of snoops hitting in the snoop filter with a single holder of the requested data.
system.tol2bus.snoop_filter.tot_requests      4538168                       # Total number of requests made to the snoop filter.
system.tol2bus.snoop_filter.tot_snoops            863                       # Total number of snoops made to the snoop filter.
system.membus.trans_dist::ReadResp             202659                       # Transaction distribution
system.membus.trans_dist::WritebackDirty       756250                       # Transaction distribution
system.membus.trans_dist::CleanEvict           196186                       # Transaction distribution
system.membus.trans_dist::ReadExReq            750820                       # Transaction distribution
system.membus.trans_dist::ReadExResp           750819                       # Transaction distribution
system.membus.trans_dist::ReadSharedReq        202659                       # Transaction distribution
system.membus.pkt_count_system.l2.mem_side::system.mem_ctrls.port      2859393                       # Packet count per connected master and slave (bytes)
system.membus.pkt_count_system.l2.mem_side::total      2859393                       # Packet count per connected master and slave (bytes)
system.membus.pkt_count::total                2859393                       # Packet count per connected master and slave (bytes)
system.membus.pkt_size_system.l2.mem_side::system.mem_ctrls.port    109422592                       # Cumulative packet size per connected master and slave (bytes)
system.membus.pkt_size_system.l2.mem_side::total    109422592                       # Cumulative packet size per connected master and slave (bytes)
system.membus.pkt_size::total               109422592                       # Cumulative packet size per connected master and slave (bytes)
system.membus.snoops                                0                       # Total snoops (count)
system.membus.snoopTraffic                          0                       # Total snoop traffic (bytes)
system.membus.snoop_fanout::samples            953479                       # Request fanout histogram
system.membus.snoop_fanout::mean                    0                       # Request fanout histogram
system.membus.snoop_fanout::stdev                   0                       # Request fanout histogram
system.membus.snoop_fanout::underflows              0      0.00%      0.00% # Request fanout histogram
system.membus.snoop_fanout::0                  953479    100.00%    100.00% # Request fanout histogram
system.membus.snoop_fanout::1                       0      0.00%    100.00% # Request fanout histogram
system.membus.snoop_fanout::overflows               0      0.00%    100.00% # Request fanout histogram
system.membus.snoop_fanout::min_value               0                       # Request fanout histogram
system.membus.snoop_fanout::max_value               0                       # Request fanout histogram
system.membus.snoop_fanout::total              953479                       # Request fanout histogram
system.membus.reqLayer4.occupancy          5248583500                       # Layer occupancy (ticks)
system.membus.reqLayer4.utilization              11.3                       # Layer utilization (%)
system.membus.respLayer1.occupancy         5020803750                       # Layer occupancy (ticks)
system.membus.respLayer1.utilization             10.8                       # Layer utilization (%)
system.membus.power_state.pwrStateResidencyTicks::UNDEFINED  46444216500                       # Cumulative time (in ticks) in various power states
system.voltage_domain.voltage                       1                       # Voltage in Volts
system.clk_domain.clock                          1000                       # Clock period in ticks
system.cpu0.icache.demand_hits::.cpu0.inst      1843585                       # number of demand (read+write) hits
system.cpu0.icache.demand_hits::total         1843585                       # number of demand (read+write) hits
system.cpu0.icache.overall_hits::.cpu0.inst      1843585                       # number of overall hits
system.cpu0.icache.overall_hits::total        1843585                       # number of overall hits
system.cpu0.icache.demand_misses::.cpu0.inst        11105                       # number of demand (read+write) misses
system.cpu0.icache.demand_misses::total         11105                       # number of demand (read+write) misses
system.cpu0.icache.overall_misses::.cpu0.inst        11105                       # number of overall misses
system.cpu0.icache.overall_misses::total        11105                       # number of overall misses
system.cpu0.icache.demand_miss_latency::.cpu0.inst    282550000                       # number of demand (read+write) miss cycles
system.cpu0.icache.demand_miss_latency::total    282550000                       # number of demand (read+write) miss cycles
system.cpu0.icache.overall_miss_latency::.cpu0.inst    282550000                       # number of overall miss cycles
system.cpu0.icache.overall_miss_latency::total    282550000                       # number of overall miss cycles
system.cpu0.icache.demand_accesses::.cpu0.inst      1854690                       # number of demand (read+write) accesses
system.cpu0.icache.demand_accesses::total      1854690                       # number of demand (read+write) accesses
system.cpu0.icache.overall_accesses::.cpu0.inst      1854690                       # number of overall (read+write) accesses
system.cpu0.icache.overall_accesses::total      1854690                       # number of overall (read+write) accesses
system.cpu0.icache.demand_miss_rate::.cpu0.inst     0.005988                       # miss rate for demand accesses
system.cpu0.icache.demand_miss_rate::total     0.005988                       # miss rate for demand accesses
system.cpu0.icache.overall_miss_rate::.cpu0.inst     0.005988                       # miss rate for overall accesses
system.cpu0.icache.overall_miss_rate::total     0.005988                       # miss rate for overall accesses
system.cpu0.icache.demand_avg_miss_latency::.cpu0.inst 25443.493922                       # average overall miss latency
system.cpu0.icache.demand_avg_miss_latency::total 25443.493922                       # average overall miss latency
system.cpu0.icache.overall_avg_miss_latency::.cpu0.inst 25443.493922                       # average overall miss latency
system.cpu0.icache.overall_avg_miss_latency::total 25443.493922                       # average overall miss latency
system.cpu0.icache.blocked_cycles::no_mshrs            0                       # number of cycles access was blocked
system.cpu0.icache.blocked_cycles::no_targets            0                       # number of cycles access was blocked
system.cpu0.icache.blocked::no_mshrs                0                       # number of cycles access was blocked
system.cpu0.icache.blocked::no_targets              0                       # number of cycles access was blocked
system.cpu0.icache.avg_blocked_cycles::no_mshrs          nan                       # average number of cycles each access was blocked
system.cpu0.icache.avg_blocked_cycles::no_targets          nan                       # average number of cycles each access was blocked
system.cpu0.icache.writebacks::.writebacks        11089                       # number of writebacks
system.cpu0.icache.writebacks::total            11089                       # number of writebacks
system.cpu0.icache.demand_mshr_misses::.cpu0.inst        11105                       # number of demand (read+write) MSHR misses
system.cpu0.icache.demand_mshr_misses::total        11105                       # number of demand (read+write) MSHR misses
system.cpu0.icache.overall_mshr_misses::.cpu0.inst        11105                       # number of overall MSHR misses
system.cpu0.icache.overall_mshr_misses::total        11105                       # number of overall MSHR misses
system.cpu0.icache.demand_mshr_miss_latency::.cpu0.inst    271445000                       # number of demand (read+write) MSHR miss cycles
system.cpu0.icache.demand_mshr_miss_latency::total    271445000                       # number of demand (read+write) MSHR miss cycles
system.cpu0.icache.overall_mshr_miss_latency::.cpu0.inst    271445000                       # number of overall MSHR miss cycles
system.cpu0.icache.overall_mshr_miss_latency::total    271445000                       # number of overall MSHR miss cycles
system.cpu0.icache.demand_mshr_miss_rate::.cpu0.inst     0.005988                       # mshr miss rate for demand accesses
system.cpu0.icache.demand_mshr_miss_rate::total     0.005988                       # mshr miss rate for demand accesses
system.cpu0.icache.overall_mshr_miss_rate::.cpu0.inst     0.005988                       # mshr miss rate for overall accesses
system.cpu0.icache.overall_mshr_miss_rate::total     0.005988                       # mshr miss rate for overall accesses
system.cpu0.icache.demand_avg_mshr_miss_latency::.cpu0.inst 24443.493922                       # average overall mshr miss latency
system.cpu0.icache.demand_avg_mshr_miss_latency::total 24443.493922                       # average overall mshr miss latency
system.cpu0.icache.overall_avg_mshr_miss_latency::.cpu0.inst 24443.493922                       # average overall mshr miss latency
system.cpu0.icache.overall_avg_mshr_miss_latency::total 24443.493922                       # average overall mshr miss latency
system.cpu0.icache.replacements                 11089                       # number of replacements
system.cpu0.icache.ReadReq_hits::.cpu0.inst      1843585                       # number of ReadReq hits
system.cpu0.icache.ReadReq_hits::total        1843585                       # number of ReadReq hits
system.cpu0.icache.ReadReq_misses::.cpu0.inst        11105                       # number of ReadReq misses
system.cpu0.icache.ReadReq_misses::total        11105                       # number of ReadReq misses
system.cpu0.icache.ReadReq_miss_latency::.cpu0.inst    282550000                       # number of ReadReq miss cycles
system.cpu0.icache.ReadReq_miss_latency::total    282550000                       # number of ReadReq miss cycles
system.cpu0.icache.ReadReq_accesses::.cpu0.inst      1854690                       # number of ReadReq accesses(hits+misses)
system.cpu0.icache.ReadReq_accesses::total      1854690                       # number of ReadReq accesses(hits+misses)
system.cpu0.icache.ReadReq_miss_rate::.cpu0.inst     0.005988                       # miss rate for ReadReq accesses
system.cpu0.icache.ReadReq_miss_rate::total     0.005988                       # miss rate for ReadReq accesses
system.cpu0.icache.ReadReq_avg_miss_latency::.cpu0.inst 25443.493922                       # average ReadReq miss latency
system.cpu0.icache.ReadReq_avg_miss_latency::total 25443.493922                       # average ReadReq miss latency
system.cpu0.icache.ReadReq_mshr_misses::.cpu0.inst        11105                       # number of ReadReq MSHR misses
system.cpu0.icache.ReadReq_mshr_misses::total        11105                       # number of ReadReq MSHR misses
system.cpu0.icache.ReadReq_mshr_miss_latency::.cpu0.inst    271445000                       # number of ReadReq MSHR miss cycles
system.cpu0.icache.ReadReq_mshr_miss_latency::total    271445000                       # number of ReadReq MSHR miss cycles
system.cpu0.icache.ReadReq_mshr_miss_rate::.cpu0.inst     0.005988                       # mshr miss rate for ReadReq accesses
system.cpu0.icache.ReadReq_mshr_miss_rate::total     0.005988                       # mshr miss rate for ReadReq accesses
system.cpu0.icache.ReadReq_avg_mshr_miss_latency::.cpu0.inst 24443.493922                       # average ReadReq mshr miss latency
system.cpu0.icache.ReadReq_avg_mshr_miss_latency::total 24443.493922                       # average ReadReq mshr miss latency
system.cpu0.icache.power_state.pwrStateResidencyTicks::UNDEFINED  46444216500                       # Cumulative time (in ticks) in various power states
system.cpu0.icache.tags.tagsinuse           15.999706                       # Cycle average of tags in use
system.cpu0.icache.tags.total_refs            1854690                       # Total number of references to valid blocks.
system.cpu0.icache.tags.sampled_refs            11105                       # Sample count of references to valid blocks.
system.cpu0.icache.tags.avg_refs           167.013958                       # Average number of references to valid blocks.
system.cpu0.icache.tags.warmup_cycle            87500                       # Cycle when the warmup percentage was hit.
system.cpu0.icache.tags.occ_blocks::.cpu0.inst    15.999706                       # Average occupied blocks per requestor
system.cpu0.icache.tags.occ_percent::.cpu0.inst     0.999982                       # Average percentage of cache occupancy
system.cpu0.icache.tags.occ_percent::total     0.999982                       # Average percentage of cache occupancy
system.cpu0.icache.tags.occ_task_id_blocks::1024           16                       # Occupied blocks per task id
system.cpu0.icache.tags.age_task_id_blocks_1024::4           16                       # Occupied blocks per task id
system.cpu0.icache.tags.occ_task_id_percent::1024            1                       # Percentage of cache occupancy per task id
system.cpu0.icache.tags.tag_accesses         14848625                       # Number of tag accesses
system.cpu0.icache.tags.data_accesses        14848625                       # Number of data accesses
system.cpu0.icache.tags.power_state.pwrStateResidencyTicks::UNDEFINED  46444216500                       # Cumulative time (in ticks) in various power states
system.cpu0.dtb.walker.power_state.pwrStateResidencyTicks::UNDEFINED  46444216500                       # Cumulative time (in ticks) in various power states
system.cpu0.interrupts.clk_domain.clock          8000                       # Clock period in ticks
system.cpu0.itb_walker_cache.blocked_cycles::no_mshrs            0                       # number of cycles access was blocked
system.cpu0.itb_walker_cache.blocked_cycles::no_targets            0                       # number of cycles access was blocked
system.cpu0.itb_walker_cache.blocked::no_mshrs            0                       # number of cycles access was blocked
system.cpu0.itb_walker_cache.blocked::no_targets            0                       # number of cycles access was blocked
system.cpu0.itb_walker_cache.avg_blocked_cycles::no_mshrs          nan                       # average number of cycles each access was blocked
system.cpu0.itb_walker_cache.avg_blocked_cycles::no_targets          nan                       # average number of cycles each access was blocked
system.cpu0.itb_walker_cache.replacements            0                       # number of replacements
system.cpu0.itb_walker_cache.power_state.pwrStateResidencyTicks::UNDEFINED  46444216500                       # Cumulative time (in ticks) in various power states
system.cpu0.itb_walker_cache.tags.tagsinuse            0                       # Cycle average of tags in use
system.cpu0.itb_walker_cache.tags.total_refs            0                       # Total number of references to valid blocks.
system.cpu0.itb_walker_cache.tags.sampled_refs            0                       # Sample count of references to valid blocks.
system.cpu0.itb_walker_cache.tags.avg_refs          nan                       # Average number of references to valid blocks.
system.cpu0.itb_walker_cache.tags.warmup_cycle            0                       # Cycle when the warmup percentage was hit.
system.cpu0.itb_walker_cache.tags.tag_accesses            0                       # Number of tag accesses
system.cpu0.itb_walker_cache.tags.data_accesses            0                       # Number of data accesses
system.cpu0.itb_walker_cache.tags.power_state.pwrStateResidencyTicks::UNDEFINED  46444216500                       # Cumulative time (in ticks) in various power states
system.cpu0.dtb_walker_cache.blocked_cycles::no_mshrs            0                       # number of cycles access was blocked
system.cpu0.dtb_walker_cache.blocked_cycles::no_targets            0                       # number of cycles access was blocked
system.cpu0.dtb_walker_cache.blocked::no_mshrs            0                       # number of cycles access was blocked
system.cpu0.dtb_walker_cache.blocked::no_targets            0                       # number of cycles access was blocked
system.cpu0.dtb_walker_cache.avg_blocked_cycles::no_mshrs          nan                       # average number of cycles each access was blocked
system.cpu0.dtb_walker_cache.avg_blocked_cycles::no_targets          nan                       # average number of cycles each access was blocked
system.cpu0.dtb_walker_cache.replacements            0                       # number of replacements
system.cpu0.dtb_walker_cache.power_state.pwrStateResidencyTicks::UNDEFINED  46444216500                       # Cumulative time (in ticks) in various power states
system.cpu0.dtb_walker_cache.tags.tagsinuse            0                       # Cycle average of tags in use
system.cpu0.dtb_walker_cache.tags.total_refs            0                       # Total number of references to valid blocks.
system.cpu0.dtb_walker_cache.tags.sampled_refs            0                       # Sample count of references to valid blocks.
system.cpu0.dtb_walker_cache.tags.avg_refs          nan                       # Average number of references to valid blocks.
system.cpu0.dtb_walker_cache.tags.warmup_cycle            0                       # Cycle when the warmup percentage was hit.
system.cpu0.dtb_walker_cache.tags.tag_accesses            0                       # Number of tag accesses
system.cpu0.dtb_walker_cache.tags.data_accesses            0                       # Number of data accesses
system.cpu0.dtb_walker_cache.tags.power_state.pwrStateResidencyTicks::UNDEFINED  46444216500                       # Cumulative time (in ticks) in various power states
system.cpu0.dcache.demand_hits::.cpu0.data      5839743                       # number of demand (read+write) hits
system.cpu0.dcache.demand_hits::total         5839743                       # number of demand (read+write) hits
system.cpu0.dcache.overall_hits::.cpu0.data      5839743                       # number of overall hits
system.cpu0.dcache.overall_hits::total        5839743                       # number of overall hits
system.cpu0.dcache.demand_misses::.cpu0.data      1169724                       # number of demand (read+write) misses
system.cpu0.dcache.demand_misses::total       1169724                       # number of demand (read+write) misses
system.cpu0.dcache.overall_misses::.cpu0.data      1169724                       # number of overall misses
system.cpu0.dcache.overall_misses::total      1169724                       # number of overall misses
system.cpu0.dcache.demand_miss_latency::.cpu0.data  79680534500                       # number of demand (read+write) miss cycles
system.cpu0.dcache.demand_miss_latency::total  79680534500                       # number of demand (read+write) miss cycles
system.cpu0.dcache.overall_miss_latency::.cpu0.data  79680534500                       # number of overall miss cycles
system.cpu0.dcache.overall_miss_latency::total  79680534500                       # number of overall miss cycles
system.cpu0.dcache.demand_accesses::.cpu0.data      7009467                       # number of demand (read+write) accesses
system.cpu0.dcache.demand_accesses::total      7009467                       # number of demand (read+write) accesses
system.cpu0.dcache.overall_accesses::.cpu0.data      7009467                       # number of overall (read+write) accesses
system.cpu0.dcache.overall_accesses::total      7009467                       # number of overall (read+write) accesses
system.cpu0.dcache.demand_miss_rate::.cpu0.data     0.166878                       # miss rate for demand accesses
system.cpu0.dcache.demand_miss_rate::total     0.166878                       # miss rate for demand accesses
system.cpu0.dcache.overall_miss_rate::.cpu0.data     0.166878                       # miss rate for overall accesses
system.cpu0.dcache.overall_miss_rate::total     0.166878                       # miss rate for overall accesses
system.cpu0.dcache.demand_avg_miss_latency::.cpu0.data 68119.090059                       # average overall miss latency
system.cpu0.dcache.demand_avg_miss_latency::total 68119.090059                       # average overall miss latency
system.cpu0.dcache.overall_avg_miss_latency::.cpu0.data 68119.090059                       # average overall miss latency
system.cpu0.dcache.overall_avg_miss_latency::total 68119.090059                       # average overall miss latency
system.cpu0.dcache.blocked_cycles::no_mshrs            0                       # number of cycles access was blocked
system.cpu0.dcache.blocked_cycles::no_targets            0                       # number of cycles access was blocked
system.cpu0.dcache.blocked::no_mshrs                0                       # number of cycles access was blocked
system.cpu0.dcache.blocked::no_targets              0                       # number of cycles access was blocked
system.cpu0.dcache.avg_blocked_cycles::no_mshrs          nan                       # average number of cycles each access was blocked
system.cpu0.dcache.avg_blocked_cycles::no_targets          nan                       # average number of cycles each access was blocked
system.cpu0.dcache.writebacks::.writebacks       727407                       # number of writebacks
system.cpu0.dcache.writebacks::total           727407                       # number of writebacks
system.cpu0.dcache.demand_mshr_hits::.cpu0.data       435177                       # number of demand (read+write) MSHR hits
system.cpu0.dcache.demand_mshr_hits::total       435177                       # number of demand (read+write) MSHR hits
system.cpu0.dcache.overall_mshr_hits::.cpu0.data       435177                       # number of overall MSHR hits
system.cpu0.dcache.overall_mshr_hits::total       435177                       # number of overall MSHR hits
system.cpu0.dcache.demand_mshr_misses::.cpu0.data       734547                       # number of demand (read+write) MSHR misses
system.cpu0.dcache.demand_mshr_misses::total       734547                       # number of demand (read+write) MSHR misses
system.cpu0.dcache.overall_mshr_misses::.cpu0.data       734547                       # number of overall MSHR misses
system.cpu0.dcache.overall_mshr_misses::total       734547                       # number of overall MSHR misses
system.cpu0.dcache.demand_mshr_miss_latency::.cpu0.data  62978469500                       # number of demand (read+write) MSHR miss cycles
system.cpu0.dcache.demand_mshr_miss_latency::total  62978469500                       # number of demand (read+write) MSHR miss cycles
system.cpu0.dcache.overall_mshr_miss_latency::.cpu0.data  62978469500                       # number of overall MSHR miss cycles
system.cpu0.dcache.overall_mshr_miss_latency::total  62978469500                       # number of overall MSHR miss cycles
system.cpu0.dcache.demand_mshr_miss_rate::.cpu0.data     0.104794                       # mshr miss rate for demand accesses
system.cpu0.dcache.demand_mshr_miss_rate::total     0.104794                       # mshr miss rate for demand accesses
system.cpu0.dcache.overall_mshr_miss_rate::.cpu0.data     0.104794                       # mshr miss rate for overall accesses
system.cpu0.dcache.overall_mshr_miss_rate::total     0.104794                       # mshr miss rate for overall accesses
system.cpu0.dcache.demand_avg_mshr_miss_latency::.cpu0.data 85737.835019                       # average overall mshr miss latency
system.cpu0.dcache.demand_avg_mshr_miss_latency::total 85737.835019                       # average overall mshr miss latency
system.cpu0.dcache.overall_avg_mshr_miss_latency::.cpu0.data 85737.835019                       # average overall mshr miss latency
system.cpu0.dcache.overall_avg_mshr_miss_latency::total 85737.835019                       # average overall mshr miss latency
system.cpu0.dcache.replacements                734530                       # number of replacements
system.cpu0.dcache.ReadReq_hits::.cpu0.data      1199564                       # number of ReadReq hits
system.cpu0.dcache.ReadReq_hits::total        1199564                       # number of ReadReq hits
system.cpu0.dcache.ReadReq_misses::.cpu0.data         9379                       # number of ReadReq misses
system.cpu0.dcache.ReadReq_misses::total         9379                       # number of ReadReq misses
system.cpu0.dcache.ReadReq_miss_latency::.cpu0.data    336082500                       # number of ReadReq miss cycles
system.cpu0.dcache.ReadReq_miss_latency::total    336082500                       # number of ReadReq miss cycles
system.cpu0.dcache.ReadReq_accesses::.cpu0.data      1208943                       # number of ReadReq accesses(hits+misses)
system.cpu0.dcache.ReadReq_accesses::total      1208943                       # number of ReadReq accesses(hits+misses)
system.cpu0.dcache.ReadReq_miss_rate::.cpu0.data     0.007758                       # miss rate for ReadReq accesses
system.cpu0.dcache.ReadReq_miss_rate::total     0.007758                       # miss rate for ReadReq accesses
system.cpu0.dcache.ReadReq_avg_miss_latency::.cpu0.data 35833.511035                       # average ReadReq miss latency
system.cpu0.dcache.ReadReq_avg_miss_latency::total 35833.511035                       # average ReadReq miss latency
system.cpu0.dcache.ReadReq_mshr_hits::.cpu0.data          334                       # number of ReadReq MSHR hits
system.cpu0.dcache.ReadReq_mshr_hits::total          334                       # number of ReadReq MSHR hits
system.cpu0.dcache.ReadReq_mshr_misses::.cpu0.data         9045                       # number of ReadReq MSHR misses
system.cpu0.dcache.ReadReq_mshr_misses::total         9045                       # number of ReadReq MSHR misses
system.cpu0.dcache.ReadReq_mshr_miss_latency::.cpu0.data    312802500                       # number of ReadReq MSHR miss cycles
system.cpu0.dcache.ReadReq_mshr_miss_latency::total    312802500                       # number of ReadReq MSHR miss cycles
system.cpu0.dcache.ReadReq_mshr_miss_rate::.cpu0.data     0.007482                       # mshr miss rate for ReadReq accesses
system.cpu0.dcache.ReadReq_mshr_miss_rate::total     0.007482                       # mshr miss rate for ReadReq accesses
system.cpu0.dcache.ReadReq_avg_mshr_miss_latency::.cpu0.data 34582.918740                       # average ReadReq mshr miss latency
system.cpu0.dcache.ReadReq_avg_mshr_miss_latency::total 34582.918740                       # average ReadReq mshr miss latency
system.cpu0.dcache.WriteReq_hits::.cpu0.data      4640179                       # number of WriteReq hits
system.cpu0.dcache.WriteReq_hits::total       4640179                       # number of WriteReq hits
system.cpu0.dcache.WriteReq_misses::.cpu0.data      1160345                       # number of WriteReq misses
system.cpu0.dcache.WriteReq_misses::total      1160345                       # number of WriteReq misses
system.cpu0.dcache.WriteReq_miss_latency::.cpu0.data  79344452000                       # number of WriteReq miss cycles
system.cpu0.dcache.WriteReq_miss_latency::total  79344452000                       # number of WriteReq miss cycles
system.cpu0.dcache.WriteReq_accesses::.cpu0.data      5800524                       # number of WriteReq accesses(hits+misses)
system.cpu0.dcache.WriteReq_accesses::total      5800524                       # number of WriteReq accesses(hits+misses)
system.cpu0.dcache.WriteReq_miss_rate::.cpu0.data     0.200041                       # miss rate for WriteReq accesses
system.cpu0.dcache.WriteReq_miss_rate::total     0.200041                       # miss rate for WriteReq accesses
system.cpu0.dcache.WriteReq_avg_miss_latency::.cpu0.data 68380.052484                       # average WriteReq miss latency
system.cpu0.dcache.WriteReq_avg_miss_latency::total 68380.052484                       # average WriteReq miss latency
system.cpu0.dcache.WriteReq_mshr_hits::.cpu0.data       434843                       # number of WriteReq MSHR hits
system.cpu0.dcache.WriteReq_mshr_hits::total       434843                       # number of WriteReq MSHR hits
system.cpu0.dcache.WriteReq_mshr_misses::.cpu0.data       725502                       # number of WriteReq MSHR misses
system.cpu0.dcache.WriteReq_mshr_misses::total       725502                       # number of WriteReq MSHR misses
system.cpu0.dcache.WriteReq_mshr_miss_latency::.cpu0.data  62665667000                       # number of WriteReq MSHR miss cycles
system.cpu0.dcache.WriteReq_mshr_miss_latency::total  62665667000                       # number of WriteReq MSHR miss cycles
system.cpu0.dcache.WriteReq_mshr_miss_rate::.cpu0.data     0.125075                       # mshr miss rate for WriteReq accesses
system.cpu0.dcache.WriteReq_mshr_miss_rate::total     0.125075                       # mshr miss rate for WriteReq accesses
system.cpu0.dcache.WriteReq_avg_mshr_miss_latency::.cpu0.data 86375.595105                       # average WriteReq mshr miss latency
system.cpu0.dcache.WriteReq_avg_mshr_miss_latency::total 86375.595105                       # average WriteReq mshr miss latency
system.cpu0.dcache.power_state.pwrStateResidencyTicks::UNDEFINED  46444216500                       # Cumulative time (in ticks) in various power states
system.cpu0.dcache.tags.tagsinuse           15.999725                       # Cycle average of tags in use
system.cpu0.dcache.tags.total_refs            6574289                       # Total number of references to valid blocks.
system.cpu0.dcache.tags.sampled_refs           734546                       # Sample count of references to valid blocks.
system.cpu0.dcache.tags.avg_refs             8.950139                       # Average number of references to valid blocks.
system.cpu0.dcache.tags.warmup_cycle           178500                       # Cycle when the warmup percentage was hit.
system.cpu0.dcache.tags.occ_blocks::.cpu0.data    15.999725                       # Average occupied blocks per requestor
system.cpu0.dcache.tags.occ_percent::.cpu0.data     0.999983                       # Average percentage of cache occupancy
system.cpu0.dcache.tags.occ_percent::total     0.999983                       # Average percentage of cache occupancy
system.cpu0.dcache.tags.occ_task_id_blocks::1024           16                       # Occupied blocks per task id
system.cpu0.dcache.tags.age_task_id_blocks_1024::0           14                       # Occupied blocks per task id
system.cpu0.dcache.tags.age_task_id_blocks_1024::4            2                       # Occupied blocks per task id
system.cpu0.dcache.tags.occ_task_id_percent::1024            1                       # Percentage of cache occupancy per task id
system.cpu0.dcache.tags.tag_accesses         56810282                       # Number of tag accesses
system.cpu0.dcache.tags.data_accesses        56810282                       # Number of data accesses
system.cpu0.dcache.tags.power_state.pwrStateResidencyTicks::UNDEFINED  46444216500                       # Cumulative time (in ticks) in various power states
system.cpu0.power_state.pwrStateResidencyTicks::ON  46444216500                       # Cumulative time (in ticks) in various power states
system.cpu0.itb.walker.power_state.pwrStateResidencyTicks::UNDEFINED  46444216500                       # Cumulative time (in ticks) in various power states
system.cpu1.icache.demand_hits::.cpu1.inst      4210895                       # number of demand (read+write) hits
system.cpu1.icache.demand_hits::total         4210895                       # number of demand (read+write) hits
system.cpu1.icache.overall_hits::.cpu1.inst      4210895                       # number of overall hits
system.cpu1.icache.overall_hits::total        4210895                       # number of overall hits
system.cpu1.icache.demand_misses::.cpu1.inst      1136836                       # number of demand (read+write) misses
system.cpu1.icache.demand_misses::total       1136836                       # number of demand (read+write) misses
system.cpu1.icache.overall_misses::.cpu1.inst      1136836                       # number of overall misses
system.cpu1.icache.overall_misses::total      1136836                       # number of overall misses
system.cpu1.icache.demand_miss_latency::.cpu1.inst  26560514500                       # number of demand (read+write) miss cycles
system.cpu1.icache.demand_miss_latency::total  26560514500                       # number of demand (read+write) miss cycles
system.cpu1.icache.overall_miss_latency::.cpu1.inst  26560514500                       # number of overall miss cycles
system.cpu1.icache.overall_miss_latency::total  26560514500                       # number of overall miss cycles
system.cpu1.icache.demand_accesses::.cpu1.inst      5347731                       # number of demand (read+write) accesses
system.cpu1.icache.demand_accesses::total      5347731                       # number of demand (read+write) accesses
system.cpu1.icache.overall_accesses::.cpu1.inst      5347731                       # number of overall (read+write) accesses
system.cpu1.icache.overall_accesses::total      5347731                       # number of overall (read+write) accesses
system.cpu1.icache.demand_miss_rate::.cpu1.inst     0.212583                       # miss rate for demand accesses
system.cpu1.icache.demand_miss_rate::total     0.212583                       # miss rate for demand accesses
system.cpu1.icache.overall_miss_rate::.cpu1.inst     0.212583                       # miss rate for overall accesses
system.cpu1.icache.overall_miss_rate::total     0.212583                       # miss rate for overall accesses
system.cpu1.icache.demand_avg_miss_latency::.cpu1.inst 23363.541003                       # average overall miss latency
system.cpu1.icache.demand_avg_miss_latency::total 23363.541003                       # average overall miss latency
system.cpu1.icache.overall_avg_miss_latency::.cpu1.inst 23363.541003                       # average overall miss latency
system.cpu1.icache.overall_avg_miss_latency::total 23363.541003                       # average overall miss latency
system.cpu1.icache.blocked_cycles::no_mshrs            0                       # number of cycles access was blocked
system.cpu1.icache.blocked_cycles::no_targets            0                       # number of cycles access was blocked
system.cpu1.icache.blocked::no_mshrs                0                       # number of cycles access was blocked
system.cpu1.icache.blocked::no_targets              0                       # number of cycles access was blocked
system.cpu1.icache.avg_blocked_cycles::no_mshrs          nan                       # average number of cycles each access was blocked
system.cpu1.icache.avg_blocked_cycles::no_targets          nan                       # average number of cycles each access was blocked
system.cpu1.icache.writebacks::.writebacks      1136819                       # number of writebacks
system.cpu1.icache.writebacks::total          1136819                       # number of writebacks
system.cpu1.icache.demand_mshr_misses::.cpu1.inst      1136836                       # number of demand (read+write) MSHR misses
system.cpu1.icache.demand_mshr_misses::total      1136836                       # number of demand (read+write) MSHR misses
system.cpu1.icache.overall_mshr_misses::.cpu1.inst      1136836                       # number of overall MSHR misses
system.cpu1.icache.overall_mshr_misses::total      1136836                       # number of overall MSHR misses
system.cpu1.icache.demand_mshr_miss_latency::.cpu1.inst  25423679500                       # number of demand (read+write) MSHR miss cycles
system.cpu1.icache.demand_mshr_miss_latency::total  25423679500                       # number of demand (read+write) MSHR miss cycles
system.cpu1.icache.overall_mshr_miss_latency::.cpu1.inst  25423679500                       # number of overall MSHR miss cycles
system.cpu1.icache.overall_mshr_miss_latency::total  25423679500                       # number of overall MSHR miss cycles
system.cpu1.icache.demand_mshr_miss_rate::.cpu1.inst     0.212583                       # mshr miss rate for demand accesses
system.cpu1.icache.demand_mshr_miss_rate::total     0.212583                       # mshr miss rate for demand accesses
system.cpu1.icache.overall_mshr_miss_rate::.cpu1.inst     0.212583                       # mshr miss rate for overall accesses
system.cpu1.icache.overall_mshr_miss_rate::total     0.212583                       # mshr miss rate for overall accesses
system.cpu1.icache.demand_avg_mshr_miss_latency::.cpu1.inst 22363.541883                       # average overall mshr miss latency
system.cpu1.icache.demand_avg_mshr_miss_latency::total 22363.541883                       # average overall mshr miss latency
system.cpu1.icache.overall_avg_mshr_miss_latency::.cpu1.inst 22363.541883                       # average overall mshr miss latency
system.cpu1.icache.overall_avg_mshr_miss_latency::total 22363.541883                       # average overall mshr miss latency
system.cpu1.icache.replacements               1136819                       # number of replacements
system.cpu1.icache.ReadReq_hits::.cpu1.inst      4210895                       # number of ReadReq hits
system.cpu1.icache.ReadReq_hits::total        4210895                       # number of ReadReq hits
system.cpu1.icache.ReadReq_misses::.cpu1.inst      1136836                       # number of ReadReq misses
system.cpu1.icache.ReadReq_misses::total      1136836                       # number of ReadReq misses
system.cpu1.icache.ReadReq_miss_latency::.cpu1.inst  26560514500                       # number of ReadReq miss cycles
system.cpu1.icache.ReadReq_miss_latency::total  26560514500                       # number of ReadReq miss cycles
system.cpu1.icache.ReadReq_accesses::.cpu1.inst      5347731                       # number of ReadReq accesses(hits+misses)
system.cpu1.icache.ReadReq_accesses::total      5347731                       # number of ReadReq accesses(hits+misses)
system.cpu1.icache.ReadReq_miss_rate::.cpu1.inst     0.212583                       # miss rate for ReadReq accesses
system.cpu1.icache.ReadReq_miss_rate::total     0.212583                       # miss rate for ReadReq accesses
system.cpu1.icache.ReadReq_avg_miss_latency::.cpu1.inst 23363.541003                       # average ReadReq miss latency
system.cpu1.icache.ReadReq_avg_miss_latency::total 23363.541003                       # average ReadReq miss latency
system.cpu1.icache.ReadReq_mshr_misses::.cpu1.inst      1136836                       # number of ReadReq MSHR misses
system.cpu1.icache.ReadReq_mshr_misses::total      1136836                       # number of ReadReq MSHR misses
system.cpu1.icache.ReadReq_mshr_miss_latency::.cpu1.inst  25423679500                       # number of ReadReq MSHR miss cycles
system.cpu1.icache.ReadReq_mshr_miss_latency::total  25423679500                       # number of ReadReq MSHR miss cycles
system.cpu1.icache.ReadReq_mshr_miss_rate::.cpu1.inst     0.212583                       # mshr miss rate for ReadReq accesses
system.cpu1.icache.ReadReq_mshr_miss_rate::total     0.212583                       # mshr miss rate for ReadReq accesses
system.cpu1.icache.ReadReq_avg_mshr_miss_latency::.cpu1.inst 22363.541883                       # average ReadReq mshr miss latency
system.cpu1.icache.ReadReq_avg_mshr_miss_latency::total 22363.541883                       # average ReadReq mshr miss latency
system.cpu1.icache.power_state.pwrStateResidencyTicks::UNDEFINED  46444216500                       # Cumulative time (in ticks) in various power states
system.cpu1.icache.tags.tagsinuse           15.999693                       # Cycle average of tags in use
system.cpu1.icache.tags.total_refs            5347730                       # Total number of references to valid blocks.
system.cpu1.icache.tags.sampled_refs          1136835                       # Sample count of references to valid blocks.
system.cpu1.icache.tags.avg_refs             4.704051                       # Average number of references to valid blocks.
system.cpu1.icache.tags.warmup_cycle            94500                       # Cycle when the warmup percentage was hit.
system.cpu1.icache.tags.occ_blocks::.cpu1.inst    15.999693                       # Average occupied blocks per requestor
system.cpu1.icache.tags.occ_percent::.cpu1.inst     0.999981                       # Average percentage of cache occupancy
system.cpu1.icache.tags.occ_percent::total     0.999981                       # Average percentage of cache occupancy
system.cpu1.icache.tags.occ_task_id_blocks::1024           16                       # Occupied blocks per task id
system.cpu1.icache.tags.age_task_id_blocks_1024::0           16                       # Occupied blocks per task id
system.cpu1.icache.tags.occ_task_id_percent::1024            1                       # Percentage of cache occupancy per task id
system.cpu1.icache.tags.tag_accesses         43918683                       # Number of tag accesses
system.cpu1.icache.tags.data_accesses        43918683                       # Number of data accesses
system.cpu1.icache.tags.power_state.pwrStateResidencyTicks::UNDEFINED  46444216500                       # Cumulative time (in ticks) in various power states
system.cpu1.dtb.walker.power_state.pwrStateResidencyTicks::UNDEFINED  46444216500                       # Cumulative time (in ticks) in various power states
system.cpu1.interrupts.clk_domain.clock          8000                       # Clock period in ticks
system.cpu1.itb_walker_cache.blocked_cycles::no_mshrs            0                       # number of cycles access was blocked
system.cpu1.itb_walker_cache.blocked_cycles::no_targets            0                       # number of cycles access was blocked
system.cpu1.itb_walker_cache.blocked::no_mshrs            0                       # number of cycles access was blocked
system.cpu1.itb_walker_cache.blocked::no_targets            0                       # number of cycles access was blocked
system.cpu1.itb_walker_cache.avg_blocked_cycles::no_mshrs          nan                       # average number of cycles each access was blocked
system.cpu1.itb_walker_cache.avg_blocked_cycles::no_targets          nan                       # average number of cycles each access was blocked
system.cpu1.itb_walker_cache.replacements            0                       # number of replacements
system.cpu1.itb_walker_cache.power_state.pwrStateResidencyTicks::UNDEFINED  46444216500                       # Cumulative time (in ticks) in various power states
system.cpu1.itb_walker_cache.tags.tagsinuse            0                       # Cycle average of tags in use
system.cpu1.itb_walker_cache.tags.total_refs            0                       # Total number of references to valid blocks.
system.cpu1.itb_walker_cache.tags.sampled_refs            0                       # Sample count of references to valid blocks.
system.cpu1.itb_walker_cache.tags.avg_refs          nan                       # Average number of references to valid blocks.
system.cpu1.itb_walker_cache.tags.warmup_cycle            0                       # Cycle when the warmup percentage was hit.
system.cpu1.itb_walker_cache.tags.tag_accesses            0                       # Number of tag accesses
system.cpu1.itb_walker_cache.tags.data_accesses            0                       # Number of data accesses
system.cpu1.itb_walker_cache.tags.power_state.pwrStateResidencyTicks::UNDEFINED  46444216500                       # Cumulative time (in ticks) in various power states
system.cpu1.dtb_walker_cache.blocked_cycles::no_mshrs            0                       # number of cycles access was blocked
system.cpu1.dtb_walker_cache.blocked_cycles::no_targets            0                       # number of cycles access was blocked
system.cpu1.dtb_walker_cache.blocked::no_mshrs            0                       # number of cycles access was blocked
system.cpu1.dtb_walker_cache.blocked::no_targets            0                       # number of cycles access was blocked
system.cpu1.dtb_walker_cache.avg_blocked_cycles::no_mshrs          nan                       # average number of cycles each access was blocked
system.cpu1.dtb_walker_cache.avg_blocked_cycles::no_targets          nan                       # average number of cycles each access was blocked
system.cpu1.dtb_walker_cache.replacements            0                       # number of replacements
system.cpu1.dtb_walker_cache.power_state.pwrStateResidencyTicks::UNDEFINED  46444216500                       # Cumulative time (in ticks) in various power states
system.cpu1.dtb_walker_cache.tags.tagsinuse            0                       # Cycle average of tags in use
system.cpu1.dtb_walker_cache.tags.total_refs            0                       # Total number of references to valid blocks.
system.cpu1.dtb_walker_cache.tags.sampled_refs            0                       # Sample count of references to valid blocks.
system.cpu1.dtb_walker_cache.tags.avg_refs          nan                       # Average number of references to valid blocks.
system.cpu1.dtb_walker_cache.tags.warmup_cycle            0                       # Cycle when the warmup percentage was hit.
system.cpu1.dtb_walker_cache.tags.tag_accesses            0                       # Number of tag accesses
system.cpu1.dtb_walker_cache.tags.data_accesses            0                       # Number of data accesses
system.cpu1.dtb_walker_cache.tags.power_state.pwrStateResidencyTicks::UNDEFINED  46444216500                       # Cumulative time (in ticks) in various power states
system.cpu1.dcache.demand_hits::.cpu1.data      3326380                       # number of demand (read+write) hits
system.cpu1.dcache.demand_hits::total         3326380                       # number of demand (read+write) hits
system.cpu1.dcache.overall_hits::.cpu1.data      3327332                       # number of overall hits
system.cpu1.dcache.overall_hits::total        3327332                       # number of overall hits
system.cpu1.dcache.demand_misses::.cpu1.data       462471                       # number of demand (read+write) misses
system.cpu1.dcache.demand_misses::total        462471                       # number of demand (read+write) misses
system.cpu1.dcache.overall_misses::.cpu1.data       463573                       # number of overall misses
system.cpu1.dcache.overall_misses::total       463573                       # number of overall misses
system.cpu1.dcache.demand_miss_latency::.cpu1.data  14429161000                       # number of demand (read+write) miss cycles
system.cpu1.dcache.demand_miss_latency::total  14429161000                       # number of demand (read+write) miss cycles
system.cpu1.dcache.overall_miss_latency::.cpu1.data  14429161000                       # number of overall miss cycles
system.cpu1.dcache.overall_miss_latency::total  14429161000                       # number of overall miss cycles
system.cpu1.dcache.demand_accesses::.cpu1.data      3788851                       # number of demand (read+write) accesses
system.cpu1.dcache.demand_accesses::total      3788851                       # number of demand (read+write) accesses
system.cpu1.dcache.overall_accesses::.cpu1.data      3790905                       # number of overall (read+write) accesses
system.cpu1.dcache.overall_accesses::total      3790905                       # number of overall (read+write) accesses
system.cpu1.dcache.demand_miss_rate::.cpu1.data     0.122061                       # miss rate for demand accesses
system.cpu1.dcache.demand_miss_rate::total     0.122061                       # miss rate for demand accesses
system.cpu1.dcache.overall_miss_rate::.cpu1.data     0.122286                       # miss rate for overall accesses
system.cpu1.dcache.overall_miss_rate::total     0.122286                       # miss rate for overall accesses
system.cpu1.dcache.demand_avg_miss_latency::.cpu1.data 31200.142279                       # average overall miss latency
system.cpu1.dcache.demand_avg_miss_latency::total 31200.142279                       # average overall miss latency
system.cpu1.dcache.overall_avg_miss_latency::.cpu1.data 31125.973687                       # average overall miss latency
system.cpu1.dcache.overall_avg_miss_latency::total 31125.973687                       # average overall miss latency
system.cpu1.dcache.blocked_cycles::no_mshrs           59                       # number of cycles access was blocked
system.cpu1.dcache.blocked_cycles::no_targets            0                       # number of cycles access was blocked
system.cpu1.dcache.blocked::no_mshrs                2                       # number of cycles access was blocked
system.cpu1.dcache.blocked::no_targets              0                       # number of cycles access was blocked
system.cpu1.dcache.avg_blocked_cycles::no_mshrs    29.500000                       # average number of cycles each access was blocked
system.cpu1.dcache.avg_blocked_cycles::no_targets          nan                       # average number of cycles each access was blocked
system.cpu1.dcache.writebacks::.writebacks       173623                       # number of writebacks
system.cpu1.dcache.writebacks::total           173623                       # number of writebacks
system.cpu1.dcache.demand_mshr_hits::.cpu1.data        76880                       # number of demand (read+write) MSHR hits
system.cpu1.dcache.demand_mshr_hits::total        76880                       # number of demand (read+write) MSHR hits
system.cpu1.dcache.overall_mshr_hits::.cpu1.data        76880                       # number of overall MSHR hits
system.cpu1.dcache.overall_mshr_hits::total        76880                       # number of overall MSHR hits
system.cpu1.dcache.demand_mshr_misses::.cpu1.data       385591                       # number of demand (read+write) MSHR misses
system.cpu1.dcache.demand_mshr_misses::total       385591                       # number of demand (read+write) MSHR misses
system.cpu1.dcache.overall_mshr_misses::.cpu1.data       386629                       # number of overall MSHR misses
system.cpu1.dcache.overall_mshr_misses::total       386629                       # number of overall MSHR misses
system.cpu1.dcache.demand_mshr_miss_latency::.cpu1.data  11335743500                       # number of demand (read+write) MSHR miss cycles
system.cpu1.dcache.demand_mshr_miss_latency::total  11335743500                       # number of demand (read+write) MSHR miss cycles
system.cpu1.dcache.overall_mshr_miss_latency::.cpu1.data  11408364500                       # number of overall MSHR miss cycles
system.cpu1.dcache.overall_mshr_miss_latency::total  11408364500                       # number of overall MSHR miss cycles
system.cpu1.dcache.demand_mshr_miss_rate::.cpu1.data     0.101770                       # mshr miss rate for demand accesses
system.cpu1.dcache.demand_mshr_miss_rate::total     0.101770                       # mshr miss rate for demand accesses
system.cpu1.dcache.overall_mshr_miss_rate::.cpu1.data     0.101989                       # mshr miss rate for overall accesses
system.cpu1.dcache.overall_mshr_miss_rate::total     0.101989                       # mshr miss rate for overall accesses
system.cpu1.dcache.demand_avg_mshr_miss_latency::.cpu1.data 29398.361217                       # average overall mshr miss latency
system.cpu1.dcache.demand_avg_mshr_miss_latency::total 29398.361217                       # average overall mshr miss latency
system.cpu1.dcache.overall_avg_mshr_miss_latency::.cpu1.data 29507.265363                       # average overall mshr miss latency
system.cpu1.dcache.overall_avg_mshr_miss_latency::total 29507.265363                       # average overall mshr miss latency
system.cpu1.dcache.replacements                386613                       # number of replacements
system.cpu1.dcache.ReadReq_hits::.cpu1.data      2074175                       # number of ReadReq hits
system.cpu1.dcache.ReadReq_hits::total        2074175                       # number of ReadReq hits
system.cpu1.dcache.ReadReq_misses::.cpu1.data       297575                       # number of ReadReq misses
system.cpu1.dcache.ReadReq_misses::total       297575                       # number of ReadReq misses
system.cpu1.dcache.ReadReq_miss_latency::.cpu1.data   8644000000                       # number of ReadReq miss cycles
system.cpu1.dcache.ReadReq_miss_latency::total   8644000000                       # number of ReadReq miss cycles
system.cpu1.dcache.ReadReq_accesses::.cpu1.data      2371750                       # number of ReadReq accesses(hits+misses)
system.cpu1.dcache.ReadReq_accesses::total      2371750                       # number of ReadReq accesses(hits+misses)
system.cpu1.dcache.ReadReq_miss_rate::.cpu1.data     0.125466                       # miss rate for ReadReq accesses
system.cpu1.dcache.ReadReq_miss_rate::total     0.125466                       # miss rate for ReadReq accesses
system.cpu1.dcache.ReadReq_avg_miss_latency::.cpu1.data 29048.139125                       # average ReadReq miss latency
system.cpu1.dcache.ReadReq_avg_miss_latency::total 29048.139125                       # average ReadReq miss latency
system.cpu1.dcache.ReadReq_mshr_hits::.cpu1.data        12913                       # number of ReadReq MSHR hits
system.cpu1.dcache.ReadReq_mshr_hits::total        12913                       # number of ReadReq MSHR hits
system.cpu1.dcache.ReadReq_mshr_misses::.cpu1.data       284662                       # number of ReadReq MSHR misses
system.cpu1.dcache.ReadReq_mshr_misses::total       284662                       # number of ReadReq MSHR misses
system.cpu1.dcache.ReadReq_mshr_miss_latency::.cpu1.data   7991791000                       # number of ReadReq MSHR miss cycles
system.cpu1.dcache.ReadReq_mshr_miss_latency::total   7991791000                       # number of ReadReq MSHR miss cycles
system.cpu1.dcache.ReadReq_mshr_miss_rate::.cpu1.data     0.120022                       # mshr miss rate for ReadReq accesses
system.cpu1.dcache.ReadReq_mshr_miss_rate::total     0.120022                       # mshr miss rate for ReadReq accesses
system.cpu1.dcache.ReadReq_avg_mshr_miss_latency::.cpu1.data 28074.667500                       # average ReadReq mshr miss latency
system.cpu1.dcache.ReadReq_avg_mshr_miss_latency::total 28074.667500                       # average ReadReq mshr miss latency
system.cpu1.dcache.WriteReq_hits::.cpu1.data      1252205                       # number of WriteReq hits
system.cpu1.dcache.WriteReq_hits::total       1252205                       # number of WriteReq hits
system.cpu1.dcache.WriteReq_misses::.cpu1.data       164896                       # number of WriteReq misses
system.cpu1.dcache.WriteReq_misses::total       164896                       # number of WriteReq misses
system.cpu1.dcache.WriteReq_miss_latency::.cpu1.data   5785161000                       # number of WriteReq miss cycles
system.cpu1.dcache.WriteReq_miss_latency::total   5785161000                       # number of WriteReq miss cycles
system.cpu1.dcache.WriteReq_accesses::.cpu1.data      1417101                       # number of WriteReq accesses(hits+misses)
system.cpu1.dcache.WriteReq_accesses::total      1417101                       # number of WriteReq accesses(hits+misses)
[...]
system.mem_ctrls.bytesPerActivate::128-255        39181     16.35%     51.00% # Bytes accessed per row activation
system.mem_ctrls.bytesPerActivate::256-383        13694      5.72%     56.72% # Bytes accessed per row activation
system.mem_ctrls.bytesPerActivate::384-511         8822      3.68%     60.40% # Bytes accessed per row activation
system.mem_ctrls.bytesPerActivate::512-639         6562      2.74%     63.14% # Bytes accessed per row activation
system.mem_ctrls.bytesPerActivate::640-767         5164      2.16%     65.30% # Bytes accessed per row activation
system.mem_ctrls.bytesPerActivate::768-895         4877      2.04%     67.33% # Bytes accessed per row activation
system.mem_ctrls.bytesPerActivate::896-1023         4964      2.07%     69.40% # Bytes accessed per row activation
system.mem_ctrls.bytesPerActivate::1024-1151        73311     30.60%    100.00% # Bytes accessed per row activation
system.mem_ctrls.bytesPerActivate::total       239599                       # Bytes accessed per row activation
system.mem_ctrls.rdPerTurnAround::samples        47146                       # Reads before turning the bus around for writes
system.mem_ctrls.rdPerTurnAround::mean      20.198256                       # Reads before turning the bus around for writes
system.mem_ctrls.rdPerTurnAround::gmean     19.790409                       # Reads before turning the bus around for writes
system.mem_ctrls.rdPerTurnAround::stdev      7.849623                       # Reads before turning the bus around for writes
system.mem_ctrls.rdPerTurnAround::0-31          47012     99.72%     99.72% # Reads before turning the bus around for writes
system.mem_ctrls.rdPerTurnAround::32-63            74      0.16%     99.87% # Reads before turning the bus around for writes
system.mem_ctrls.rdPerTurnAround::64-95            27      0.06%     99.93% # Reads before turning the bus around for writes
system.mem_ctrls.rdPerTurnAround::96-127           11      0.02%     99.95% # Reads before turning the bus around for writes
system.mem_ctrls.rdPerTurnAround::128-159            7      0.01%     99.97% # Reads before turning the bus around for writes
system.mem_ctrls.rdPerTurnAround::160-191            4      0.01%     99.98% # Reads before turning the bus around for writes
system.mem_ctrls.rdPerTurnAround::192-223            5      0.01%     99.99% # Reads before turning the bus around for writes
system.mem_ctrls.rdPerTurnAround::288-319            2      0.00%     99.99% # Reads before turning the bus around for writes
system.mem_ctrls.rdPerTurnAround::416-447            1      0.00%     99.99% # Reads before turning the bus around for writes
system.mem_ctrls.rdPerTurnAround::448-479            1      0.00%    100.00% # Reads before turning the bus around for writes
system.mem_ctrls.rdPerTurnAround::704-735            1      0.00%    100.00% # Reads before turning the bus around for writes
system.mem_ctrls.rdPerTurnAround::864-895            1      0.00%    100.00% # Reads before turning the bus around for writes
system.mem_ctrls.rdPerTurnAround::total         47146                       # Reads before turning the bus around for writes
system.mem_ctrls.wrPerTurnAround::samples        47146                       # Writes before turning the bus around for reads
system.mem_ctrls.wrPerTurnAround::mean      16.038667                       # Writes before turning the bus around for reads
system.mem_ctrls.wrPerTurnAround::gmean     16.035571                       # Writes before turning the bus around for reads
system.mem_ctrls.wrPerTurnAround::stdev      0.335369                       # Writes before turning the bus around for reads
system.mem_ctrls.wrPerTurnAround::16            46378     98.37%     98.37% # Writes before turning the bus around for reads
system.mem_ctrls.wrPerTurnAround::17              253      0.54%     98.91% # Writes before turning the bus around for reads
system.mem_ctrls.wrPerTurnAround::18              141      0.30%     99.21% # Writes before turning the bus around for reads
system.mem_ctrls.wrPerTurnAround::19              222      0.47%     99.68% # Writes before turning the bus around for reads
system.mem_ctrls.wrPerTurnAround::20              138      0.29%     99.97% # Writes before turning the bus around for reads
system.mem_ctrls.wrPerTurnAround::21               14      0.03%    100.00% # Writes before turning the bus around for reads
system.mem_ctrls.wrPerTurnAround::total         47146                       # Writes before turning the bus around for reads
system.mem_ctrls.bytesReadDRAM               60945408                       # Total number of bytes read from DRAM
system.mem_ctrls.bytesReadWrQ                   77248                       # Total number of bytes read from write queue
system.mem_ctrls.bytesWritten                48394176                       # Total number of bytes written to DRAM
system.mem_ctrls.bytesReadSys                61022656                       # Total read bytes from the system interface side
system.mem_ctrls.bytesWrittenSys             48400000                       # Total written bytes from the system interface side
system.mem_ctrls.avgRdBW                      1312.23                       # Average DRAM read bandwidth in MiByte/s
system.mem_ctrls.avgWrBW                      1041.98                       # Average achieved write bandwidth in MiByte/s
system.mem_ctrls.avgRdBWSys                   1313.89                       # Average system read bandwidth in MiByte/s
system.mem_ctrls.avgWrBWSys                   1042.11                       # Average system write bandwidth in MiByte/s
system.mem_ctrls.peakBW                      12800.00                       # Theoretical peak bandwidth in MiByte/s
system.mem_ctrls.busUtil                        18.39                       # Data bus utilization in percentage
system.mem_ctrls.busUtilRead                    10.25                       # Data bus utilization in percentage for reads
system.mem_ctrls.busUtilWrite                    8.14                       # Data bus utilization in percentage for writes
system.mem_ctrls.totGap                   46444170500                       # Total gap between requests
system.mem_ctrls.avgGap                      27164.64                       # Average gap between requests
system.mem_ctrls.masterReadBytes::.cpu0.inst       119104                       # Per-master bytes read from memory
system.mem_ctrls.masterReadBytes::.cpu0.data     46519744                       # Per-master bytes read from memory
system.mem_ctrls.masterReadBytes::.cpu1.inst      9303872                       # Per-master bytes read from memory
system.mem_ctrls.masterReadBytes::.cpu1.data      5002688                       # Per-master bytes read from memory
system.mem_ctrls.masterWriteBytes::.writebacks     48394176                       # Per-master bytes write to memory
system.mem_ctrls.masterReadRate::.cpu0.inst 2564452.777451849077                       # Per-master bytes read from memory rate (Bytes/sec)
system.mem_ctrls.masterReadRate::.cpu0.data 1001626198.172596931458                       # Per-master bytes read from memory rate (Bytes/sec)
system.mem_ctrls.masterReadRate::.cpu1.inst 200323586.037886977196                       # Per-master bytes read from memory rate (Bytes/sec)
system.mem_ctrls.masterReadRate::.cpu1.data 107713906.638946086168                       # Per-master bytes read from memory rate (Bytes/sec)
system.mem_ctrls.masterWriteRate::.writebacks 1041984979.981307148933                       # Per-master bytes write to memory rate (Bytes/sec)
system.mem_ctrls.masterReadAccesses::.cpu0.inst         1861                       # Per-master read serviced memory accesses
system.mem_ctrls.masterReadAccesses::.cpu0.data       726901                       # Per-master read serviced memory accesses
system.mem_ctrls.masterReadAccesses::.cpu1.inst       145373                       # Per-master read serviced memory accesses
system.mem_ctrls.masterReadAccesses::.cpu1.data        79344                       # Per-master read serviced memory accesses
system.mem_ctrls.masterWriteAccesses::.writebacks       756250                       # Per-master write serviced memory accesses
system.mem_ctrls.masterReadTotalLat::.cpu0.inst     57493500                       # Per-master read total memory access latency
system.mem_ctrls.masterReadTotalLat::.cpu0.data  24541601000                       # Per-master read total memory access latency
system.mem_ctrls.masterReadTotalLat::.cpu1.inst   5612482250                       # Per-master read total memory access latency
system.mem_ctrls.masterReadTotalLat::.cpu1.data   3465190500                       # Per-master read total memory access latency
system.mem_ctrls.masterWriteTotalLat::.writebacks 1164366125750                       # Per-master write total memory access latency
system.mem_ctrls.masterReadAvgLat::.cpu0.inst     30893.87                       # Per-master read average memory access latency
system.mem_ctrls.masterReadAvgLat::.cpu0.data     33761.96                       # Per-master read average memory access latency
system.mem_ctrls.masterReadAvgLat::.cpu1.inst     38607.46                       # Per-master read average memory access latency
system.mem_ctrls.masterReadAvgLat::.cpu1.data     43673.00                       # Per-master read average memory access latency
system.mem_ctrls.masterWriteAvgLat::.writebacks   1539657.69                       # Per-master write average memory access latency
system.mem_ctrls.pageHitRate                    85.97                       # Row buffer hit rate, read and write combined
system.mem_ctrls.rank1.actEnergy            867452880                       # Energy for activate commands per rank (pJ)
system.mem_ctrls.rank1.preEnergy            461039370                       # Energy for precharge commands per rank (pJ)
system.mem_ctrls.rank1.readEnergy          3290504700                       # Energy for read commands per rank (pJ)
system.mem_ctrls.rank1.writeEnergy         1994916960                       # Energy for write commands per rank (pJ)
system.mem_ctrls.rank1.refreshEnergy     3665712960.000000                       # Energy for refresh commands per rank (pJ)
system.mem_ctrls.rank1.actBackEnergy      20283870090                       # Energy for active background per rank (pJ)
system.mem_ctrls.rank1.preBackEnergy        753425760                       # Energy for precharge background per rank (pJ)
system.mem_ctrls.rank1.actPowerDownEnergy            0                       # Energy for active power-down per rank (pJ)
system.mem_ctrls.rank1.prePowerDownEnergy            0                       # Energy for precharge power-down per rank (pJ)
system.mem_ctrls.rank1.selfRefreshEnergy            0                       # Energy for self refresh per rank (pJ)
system.mem_ctrls.rank1.totalEnergy        31316922720                       # Total energy per rank (pJ)
system.mem_ctrls.rank1.averagePower        674.291119                       # Core power per rank (mW)
system.mem_ctrls.rank1.totalIdleTime                0                       # Total Idle time Per DRAM Rank
system.mem_ctrls.rank1.memoryStateTime::IDLE   1751215750                       # Time in different power states
system.mem_ctrls.rank1.memoryStateTime::REF   1550640000                       # Time in different power states
system.mem_ctrls.rank1.memoryStateTime::SREF            0                       # Time in different power states
system.mem_ctrls.rank1.memoryStateTime::PRE_PDN            0                       # Time in different power states
system.mem_ctrls.rank1.memoryStateTime::ACT  43142360750                       # Time in different power states
system.mem_ctrls.rank1.memoryStateTime::ACT_PDN            0                       # Time in different power states
system.mem_ctrls.rank0.actEnergy            843369660                       # Energy for activate commands per rank (pJ)
system.mem_ctrls.rank0.preEnergy            448238835                       # Energy for precharge commands per rank (pJ)
system.mem_ctrls.rank0.readEnergy          3508717380                       # Energy for read commands per rank (pJ)
system.mem_ctrls.rank0.writeEnergy         1952233020                       # Energy for write commands per rank (pJ)
system.mem_ctrls.rank0.refreshEnergy     3665712960.000000                       # Energy for refresh commands per rank (pJ)
system.mem_ctrls.rank0.actBackEnergy      20483103900                       # Energy for active background per rank (pJ)
system.mem_ctrls.rank0.preBackEnergy        585649920                       # Energy for precharge background per rank (pJ)
system.mem_ctrls.rank0.actPowerDownEnergy            0                       # Energy for active power-down per rank (pJ)
system.mem_ctrls.rank0.prePowerDownEnergy            0                       # Energy for precharge power-down per rank (pJ)
system.mem_ctrls.rank0.selfRefreshEnergy            0                       # Energy for self refresh per rank (pJ)
system.mem_ctrls.rank0.totalEnergy        31487025675                       # Total energy per rank (pJ)
system.mem_ctrls.rank0.averagePower        677.953641                       # Core power per rank (mW)
system.mem_ctrls.rank0.totalIdleTime                0                       # Total Idle time Per DRAM Rank
system.mem_ctrls.rank0.memoryStateTime::IDLE   1321087000                       # Time in different power states
system.mem_ctrls.rank0.memoryStateTime::REF   1550640000                       # Time in different power states
system.mem_ctrls.rank0.memoryStateTime::SREF            0                       # Time in different power states
system.mem_ctrls.rank0.memoryStateTime::PRE_PDN            0                       # Time in different power states
system.mem_ctrls.rank0.memoryStateTime::ACT  43572489500                       # Time in different power states
system.mem_ctrls.rank0.memoryStateTime::ACT_PDN            0                       # Time in different power states
system.mem_ctrls.power_state.pwrStateResidencyTicks::UNDEFINED  46444216500                       # Cumulative time (in ticks) in various power states
system.cpu_clk_domain.clock                       500                       # Clock period in ticks
system.tol2bus.trans_dist::ReadResp           1442654                       # Transaction distribution
system.tol2bus.trans_dist::WritebackDirty      1657280                       # Transaction distribution
system.tol2bus.trans_dist::WritebackClean      1147908                       # Transaction distribution
system.tol2bus.trans_dist::CleanEvict          416772                       # Transaction distribution
system.tol2bus.trans_dist::ReadExReq           826462                       # Transaction distribution
system.tol2bus.trans_dist::ReadExResp          826461                       # Transaction distribution
system.tol2bus.trans_dist::ReadCleanReq       1147941                       # Transaction distribution
system.tol2bus.trans_dist::ReadSharedReq       294714                       # Transaction distribution
system.tol2bus.pkt_count_system.cpu0.icache.mem_side::system.l2.cpu_side        33299                       # Packet count per connected master and slave (bytes)
system.tol2bus.pkt_count_system.cpu0.dcache.mem_side::system.l2.cpu_side      2203623                       # Packet count per connected master and slave (bytes)
system.tol2bus.pkt_count_system.cpu1.icache.mem_side::system.l2.cpu_side      3410490                       # Packet count per connected master and slave (bytes)
system.tol2bus.pkt_count_system.cpu1.dcache.mem_side::system.l2.cpu_side      1159871                       # Packet count per connected master and slave (bytes)
system.tol2bus.pkt_count::total               6807283                       # Packet count per connected master and slave (bytes)
system.tol2bus.pkt_size_system.cpu0.icache.mem_side::system.l2.cpu_side      1420416                       # Cumulative packet size per connected master and slave (bytes)
system.tol2bus.pkt_size_system.cpu0.dcache.mem_side::system.l2.cpu_side     93564992                       # Cumulative packet size per connected master and slave (bytes)
system.tol2bus.pkt_size_system.cpu1.icache.mem_side::system.l2.cpu_side    145513856                       # Cumulative packet size per connected master and slave (bytes)
system.tol2bus.pkt_size_system.cpu1.dcache.mem_side::system.l2.cpu_side     35856128                       # Cumulative packet size per connected master and slave (bytes)
system.tol2bus.pkt_size::total              276355392                       # Cumulative packet size per connected master and slave (bytes)
system.tol2bus.snoops                          952909                       # Total snoops (count)
system.tol2bus.snoopTraffic                  48400000                       # Total snoop traffic (bytes)
system.tol2bus.snoop_fanout::samples          3222026                       # Request fanout histogram
system.tol2bus.snoop_fanout::mean            0.000268                       # Request fanout histogram
system.tol2bus.snoop_fanout::stdev           0.016364                       # Request fanout histogram
system.tol2bus.snoop_fanout::underflows             0      0.00%      0.00% # Request fanout histogram
system.tol2bus.snoop_fanout::0                3221163     99.97%     99.97% # Request fanout histogram
system.tol2bus.snoop_fanout::1                    863      0.03%    100.00% # Request fanout histogram
system.tol2bus.snoop_fanout::2                      0      0.00%    100.00% # Request fanout histogram
system.tol2bus.snoop_fanout::3                      0      0.00%    100.00% # Request fanout histogram
system.tol2bus.snoop_fanout::4                      0      0.00%    100.00% # Request fanout histogram
system.tol2bus.snoop_fanout::5                      0      0.00%    100.00% # Request fanout histogram
system.tol2bus.snoop_fanout::6                      0      0.00%    100.00% # Request fanout histogram
system.tol2bus.snoop_fanout::7                      0      0.00%    100.00% # Request fanout histogram
system.tol2bus.snoop_fanout::8                      0      0.00%    100.00% # Request fanout histogram
system.tol2bus.snoop_fanout::overflows              0      0.00%    100.00% # Request fanout histogram
system.tol2bus.snoop_fanout::min_value              0                       # Request fanout histogram
system.tol2bus.snoop_fanout::max_value              1                       # Request fanout histogram
system.tol2bus.snoop_fanout::total            3222026                       # Request fanout histogram
system.tol2bus.reqLayer0.occupancy         4318022000                       # Layer occupancy (ticks)
system.tol2bus.reqLayer0.utilization              9.3                       # Layer utilization (%)
system.tol2bus.respLayer5.occupancy         580000884                       # Layer occupancy (ticks)
system.tol2bus.respLayer5.utilization             1.2                       # Layer utilization (%)
system.tol2bus.respLayer4.occupancy        1705267969                       # Layer occupancy (ticks)
system.tol2bus.respLayer4.utilization             3.7                       # Layer utilization (%)
system.tol2bus.respLayer1.occupancy        1107508598                       # Layer occupancy (ticks)
system.tol2bus.respLayer1.utilization             2.4                       # Layer utilization (%)
system.tol2bus.respLayer0.occupancy          16667979                       # Layer occupancy (ticks)
system.tol2bus.respLayer0.utilization             0.0                       # Layer utilization (%)
system.tol2bus.power_state.pwrStateResidencyTicks::UNDEFINED  46444216500                       # Cumulative time (in ticks) in various power states

---------- End Simulation Statistics   ----------
