
---------- Begin Simulation Statistics ----------
final_tick                                60256652500                       # Number of ticks from beginning of simulation (restored from checkpoints and never reset)
host_inst_rate                                 180311                       # Simulator instruction rate (inst/s)
host_mem_usage                                4425528                       # Number of bytes of host memory used
host_op_rate                                   341316                       # Simulator op (including micro ops) rate (op/s)
host_seconds                                    85.37                       # Real time elapsed on the host
host_tick_rate                              705867235                       # Simulator tick rate (ticks/s)
sim_freq                                 1000000000000                       # Frequency of simulated ticks
sim_insts                                    15392325                       # Number of instructions simulated
sim_ops                                      29136578                       # Number of ops (including micro ops) simulated
sim_seconds                                  0.060257                       # Number of seconds simulated
sim_ticks                                 60256652500                       # Number of ticks simulated
system.cpu0.branchPred.BTBCorrect                   0                       # Number of correct BTB predictions (this stat may not work properly.
system.cpu0.branchPred.BTBHitPct                  nan                       # BTB Hit Percentage
system.cpu0.branchPred.BTBHits                      0                       # Number of BTB hits
system.cpu0.branchPred.BTBLookups                   0                       # Number of BTB lookups
system.cpu0.branchPred.RASInCorrect                 0                       # Number of incorrect RAS predictions.
system.cpu0.branchPred.condIncorrect               30                       # Number of conditional branches incorrect
system.cpu0.branchPred.condPredicted               68                       # Number of conditional branches predicted
system.cpu0.branchPred.indirectHits                 0                       # Number of indirect target hits.
system.cpu0.branchPred.indirectLookups             21                       # Number of indirect predictor lookups.
system.cpu0.branchPred.indirectMisses              21                       # Number of indirect misses.
system.cpu0.branchPred.lookups                     68                       # Number of BP lookups
system.cpu0.branchPred.usedRAS                      0                       # Number of times the RAS was used to get a target.
system.cpu0.branchPredindirectMispredicted           12                       # Number of mispredicted indirect branches.
system.cpu0.committedInsts                    5392325                       # Number of instructions committed
system.cpu0.committedOps                     10220198                       # Number of ops (including micro ops) committed
system.cpu0.cpi                             22.349039                       # CPI: cycles per instruction
system.cpu0.discardedOps                      3398945                       # Number of ops (including micro ops) which were discarded before commit
system.cpu0.dtb.rdAccesses                     845156                       # TLB accesses on read requests
system.cpu0.dtb.rdMisses                         2006                       # TLB misses on read requests
system.cpu0.dtb.wrAccesses                    5227681                       # TLB accesses on write requests
system.cpu0.dtb.wrMisses                        19968                       # TLB misses on write requests
system.cpu0.fetch2.amo_instructions                 0                       # Number of memory atomic instructions successfully decoded
system.cpu0.fetch2.fp_instructions                  0                       # Number of floating point instructions successfully decoded
system.cpu0.fetch2.int_instructions                 8                       # Number of integer instructions successfully decoded
system.cpu0.fetch2.load_instructions                0                       # Number of memory load instructions successfully decoded
system.cpu0.fetch2.store_instructions               0                       # Number of memory store instructions successfully decoded
system.cpu0.fetch2.vec_instructions                 0                       # Number of SIMD instructions successfully decoded
system.cpu0.idleCycles                      103409824                       # Total number of cycles that the object has spent stopped
system.cpu0.ipc                              0.044745                       # IPC: instructions per cycle
system.cpu0.itb.rdAccesses                          0                       # TLB accesses on read requests
system.cpu0.itb.rdMisses                            0                       # TLB misses on read requests
system.cpu0.itb.wrAccesses                    2143946                       # TLB accesses on write requests
system.cpu0.itb.wrMisses                          189                       # TLB misses on write requests
system.cpu0.numCycles                       120513284                       # number of cpu cycles simulated
system.cpu0.numFetchSuspends                        0                       # Number of times Execute suspended instruction fetching
system.cpu0.numWorkItemsCompleted                   0                       # number of work items this cpu completed
system.cpu0.numWorkItemsStarted                     0                       # number of work items this cpu started
system.cpu0.op_class_0::No_OpClass               2098      0.02%      0.02% # Class of committed instruction
system.cpu0.op_class_0::IntAlu                4785176     46.82%     46.84% # Class of committed instruction
system.cpu0.op_class_0::IntMult                   641      0.01%     46.85% # Class of committed instruction
system.cpu0.op_class_0::IntDiv                   1317      0.01%     46.86% # Class of committed instruction
system.cpu0.op_class_0::FloatAdd                  189      0.00%     46.86% # Class of committed instruction
system.cpu0.op_class_0::FloatCmp                    0      0.00%     46.86% # Class of committed instruction
system.cpu0.op_class_0::FloatCvt                   96      0.00%     46.86% # Class of committed instruction
system.cpu0.op_class_0::FloatMult                   0      0.00%     46.86% # Class of committed instruction
system.cpu0.op_class_0::FloatMultAcc                0      0.00%     46.86% # Class of committed instruction
system.cpu0.op_class_0::FloatDiv                    0      0.00%     46.86% # Class of committed instruction
system.cpu0.op_class_0::FloatMisc                   0      0.00%     46.86% # Class of committed instruction
system.cpu0.op_class_0::FloatSqrt                   0      0.00%     46.86% # Class of committed instruction
system.cpu0.op_class_0::SimdAdd                   916      0.01%     46.87% # Class of committed instruction
system.cpu0.op_class_0::SimdAddAcc                  0      0.00%     46.87% # Class of committed instruction
system.cpu0.op_class_0::SimdAlu                   943      0.01%     46.88% # Class of committed instruction
system.cpu0.op_class_0::SimdCmp                     0      0.00%     46.88% # Class of committed instruction
system.cpu0.op_class_0::SimdCvt                  1230      0.01%     46.89% # Class of committed instruction
system.cpu0.op_class_0::SimdMisc                  843      0.01%     46.90% # Class of committed instruction
system.cpu0.op_class_0::SimdMult                    0      0.00%     46.90% # Class of committed instruction
system.cpu0.op_class_0::SimdMultAcc                 0      0.00%     46.90% # Class of committed instruction
system.cpu0.op_class_0::SimdShift                 388      0.00%     46.91% # Class of committed instruction
system.cpu0.op_class_0::SimdShiftAcc                0      0.00%     46.91% # Class of committed instruction
system.cpu0.op_class_0::SimdDiv                     0      0.00%     46.91% # Class of committed instruction
system.cpu0.op_class_0::SimdSqrt                    0      0.00%     46.91% # Class of committed instruction
system.cpu0.op_class_0::SimdFloatAdd                0      0.00%     46.91% # Class of committed instruction
system.cpu0.op_class_0::SimdFloatAlu                0      0.00%     46.91% # Class of committed instruction
system.cpu0.op_class_0::SimdFloatCmp                0      0.00%     46.91% # Class of committed instruction
system.cpu0.op_class_0::SimdFloatCvt                0      0.00%     46.91% # Class of committed instruction
system.cpu0.op_class_0::SimdFloatDiv                0      0.00%     46.91% # Class of committed instruction
system.cpu0.op_class_0::SimdFloatMisc               0      0.00%     46.91% # Class of committed instruction
system.cpu0.op_class_0::SimdFloatMult               0      0.00%     46.91% # Class of committed instruction
system.cpu0.op_class_0::SimdFloatMultAcc            0      0.00%     46.91% # Class of committed instruction
system.cpu0.op_class_0::SimdFloatSqrt               0      0.00%     46.91% # Class of committed instruction
system.cpu0.op_class_0::SimdReduceAdd               0      0.00%     46.91% # Class of committed instruction
system.cpu0.op_class_0::SimdReduceAlu               0      0.00%     46.91% # Class of committed instruction
system.cpu0.op_class_0::SimdReduceCmp               0      0.00%     46.91% # Class of committed instruction
system.cpu0.op_class_0::SimdFloatReduceAdd            0      0.00%     46.91% # Class of committed instruction
system.cpu0.op_class_0::SimdFloatReduceCmp            0      0.00%     46.91% # Class of committed instruction
system.cpu0.op_class_0::SimdAes                     0      0.00%     46.91% # Class of committed instruction
system.cpu0.op_class_0::SimdAesMix                  0      0.00%     46.91% # Class of committed instruction
system.cpu0.op_class_0::SimdSha1Hash                0      0.00%     46.91% # Class of committed instruction
system.cpu0.op_class_0::SimdSha1Hash2               0      0.00%     46.91% # Class of committed instruction
system.cpu0.op_class_0::SimdSha256Hash              0      0.00%     46.91% # Class of committed instruction
system.cpu0.op_class_0::SimdSha256Hash2             0      0.00%     46.91% # Class of committed instruction
system.cpu0.op_class_0::SimdShaSigma2               0      0.00%     46.91% # Class of committed instruction
system.cpu0.op_class_0::SimdShaSigma3               0      0.00%     46.91% # Class of committed instruction
system.cpu0.op_class_0::SimdPredAlu                 0      0.00%     46.91% # Class of committed instruction
system.cpu0.op_class_0::MemRead                199681      1.95%     48.86% # Class of committed instruction
system.cpu0.op_class_0::MemWrite               133412      1.31%     50.16% # Class of committed instruction
system.cpu0.op_class_0::FloatMemRead             1610      0.02%     50.18% # Class of committed instruction
system.cpu0.op_class_0::FloatMemWrite         5091658     49.82%    100.00% # Class of committed instruction
system.cpu0.op_class_0::IprAccess                   0      0.00%    100.00% # Class of committed instruction
system.cpu0.op_class_0::InstPrefetch                0      0.00%    100.00% # Class of committed instruction
system.cpu0.op_class_0::total                10220198                       # Class of committed instruction
system.cpu0.tickCycles                       17103460                       # Number of cycles that the object actually ticked
system.cpu0.workload.numSyscalls                   30                       # Number of system calls
system.cpu1.branchPred.BTBCorrect                   0                       # Number of correct BTB predictions (this stat may not work properly.
system.cpu1.branchPred.BTBHitPct                  nan                       # BTB Hit Percentage
system.cpu1.branchPred.BTBHits                      0                       # Number of BTB hits
system.cpu1.branchPred.BTBLookups                   0                       # Number of BTB lookups
system.cpu1.branchPred.RASInCorrect                 0                       # Number of incorrect RAS predictions.
system.cpu1.branchPred.condIncorrect               39                       # Number of conditional branches incorrect
system.cpu1.branchPred.condPredicted               80                       # Number of conditional branches predicted
system.cpu1.branchPred.indirectHits                 0                       # Number of indirect target hits.
system.cpu1.branchPred.indirectLookups             24                       # Number of indirect predictor lookups.
system.cpu1.branchPred.indirectMisses              24                       # Number of indirect misses.
system.cpu1.branchPred.lookups                     80                       # Number of BP lookups
system.cpu1.branchPred.usedRAS                      0                       # Number of times the RAS was used to get a target.
system.cpu1.branchPredindirectMispredicted           15                       # Number of mispredicted indirect branches.
system.cpu1.committedInsts                   10000000                       # Number of instructions committed
system.cpu1.committedOps                     18916380                       # Number of ops (including micro ops) committed
system.cpu1.cpi                             12.051331                       # CPI: cycles per instruction
system.cpu1.discardedOps                      3496089                       # Number of ops (including micro ops) which were discarded before commit
system.cpu1.dtb.rdAccesses                    2501424                       # TLB accesses on read requests
system.cpu1.dtb.rdMisses                        32881                       # TLB misses on read requests
system.cpu1.dtb.wrAccesses                    1828771                       # TLB accesses on write requests
system.cpu1.dtb.wrMisses                         1220                       # TLB misses on write requests
system.cpu1.fetch2.amo_instructions                 0                       # Number of memory atomic instructions successfully decoded
system.cpu1.fetch2.fp_instructions                  0                       # Number of floating point instructions successfully decoded
system.cpu1.fetch2.int_instructions                 8                       # Number of integer instructions successfully decoded
system.cpu1.fetch2.load_instructions                0                       # Number of memory load instructions successfully decoded
system.cpu1.fetch2.store_instructions               0                       # Number of memory store instructions successfully decoded
system.cpu1.fetch2.vec_instructions                 0                       # Number of SIMD instructions successfully decoded
system.cpu1.idleCycles                       87998672                       # Total number of cycles that the object has spent stopped
system.cpu1.ipc                              0.082978                       # IPC: instructions per cycle
system.cpu1.itb.rdAccesses                          0                       # TLB accesses on read requests
system.cpu1.itb.rdMisses                            0                       # TLB misses on read requests
system.cpu1.itb.wrAccesses                    3325989                       # TLB accesses on write requests
system.cpu1.itb.wrMisses                          202                       # TLB misses on write requests
system.cpu1.numCycles                       120513305                       # number of cpu cycles simulated
system.cpu1.numFetchSuspends                        0                       # Number of times Execute suspended instruction fetching
system.cpu1.numWorkItemsCompleted                   0                       # number of work items this cpu completed
system.cpu1.numWorkItemsStarted                     0                       # number of work items this cpu started
system.cpu1.op_class_0::No_OpClass              38775      0.20%      0.20% # Class of committed instruction
system.cpu1.op_class_0::IntAlu               14860976     78.56%     78.77% # Class of committed instruction
system.cpu1.op_class_0::IntMult                 41062      0.22%     78.98% # Class of committed instruction
system.cpu1.op_class_0::IntDiv                   1365      0.01%     78.99% # Class of committed instruction
system.cpu1.op_class_0::FloatAdd                24884      0.13%     79.12% # Class of committed instruction
system.cpu1.op_class_0::FloatCmp                    0      0.00%     79.12% # Class of committed instruction
system.cpu1.op_class_0::FloatCvt                  160      0.00%     79.12% # Class of committed instruction
system.cpu1.op_class_0::FloatMult                   0      0.00%     79.12% # Class of committed instruction
system.cpu1.op_class_0::FloatMultAcc                0      0.00%     79.12% # Class of committed instruction
system.cpu1.op_class_0::FloatDiv                    0      0.00%     79.12% # Class of committed instruction
system.cpu1.op_class_0::FloatMisc                   0      0.00%     79.12% # Class of committed instruction
system.cpu1.op_class_0::FloatSqrt                   0      0.00%     79.12% # Class of committed instruction
system.cpu1.op_class_0::SimdAdd                   946      0.01%     79.13% # Class of committed instruction
system.cpu1.op_class_0::SimdAddAcc                  0      0.00%     79.13% # Class of committed instruction
system.cpu1.op_class_0::SimdAlu                  1027      0.01%     79.13% # Class of committed instruction
system.cpu1.op_class_0::SimdCmp                    12      0.00%     79.13% # Class of committed instruction
system.cpu1.op_class_0::SimdCvt                 27378      0.14%     79.28% # Class of committed instruction
system.cpu1.op_class_0::SimdMisc               112708      0.60%     79.87% # Class of committed instruction
system.cpu1.op_class_0::SimdMult                    0      0.00%     79.87% # Class of committed instruction
system.cpu1.op_class_0::SimdMultAcc                 0      0.00%     79.87% # Class of committed instruction
system.cpu1.op_class_0::SimdShift                 446      0.00%     79.88% # Class of committed instruction
system.cpu1.op_class_0::SimdShiftAcc                0      0.00%     79.88% # Class of committed instruction
system.cpu1.op_class_0::SimdDiv                     0      0.00%     79.88% # Class of committed instruction
system.cpu1.op_class_0::SimdSqrt                    0      0.00%     79.88% # Class of committed instruction
system.cpu1.op_class_0::SimdFloatAdd                0      0.00%     79.88% # Class of committed instruction
system.cpu1.op_class_0::SimdFloatAlu                0      0.00%     79.88% # Class of committed instruction
system.cpu1.op_class_0::SimdFloatCmp                0      0.00%     79.88% # Class of committed instruction
system.cpu1.op_class_0::SimdFloatCvt                0      0.00%     79.88% # Class of committed instruction
system.cpu1.op_class_0::SimdFloatDiv                0      0.00%     79.88% # Class of committed instruction
system.cpu1.op_class_0::SimdFloatMisc               0      0.00%     79.88% # Class of committed instruction
system.cpu1.op_class_0::SimdFloatMult               0      0.00%     79.88% # Class of committed instruction
system.cpu1.op_class_0::SimdFloatMultAcc            0      0.00%     79.88% # Class of committed instruction
system.cpu1.op_class_0::SimdFloatSqrt               0      0.00%     79.88% # Class of committed instruction
system.cpu1.op_class_0::SimdReduceAdd               0      0.00%     79.88% # Class of committed instruction
system.cpu1.op_class_0::SimdReduceAlu               0      0.00%     79.88% # Class of committed instruction
system.cpu1.op_class_0::SimdReduceCmp               0      0.00%     79.88% # Class of committed instruction
system.cpu1.op_class_0::SimdFloatReduceAdd            0      0.00%     79.88% # Class of committed instruction
system.cpu1.op_class_0::SimdFloatReduceCmp            0      0.00%     79.88% # Class of committed instruction
system.cpu1.op_class_0::SimdAes                     0      0.00%     79.88% # Class of committed instruction
system.cpu1.op_class_0::SimdAesMix                  0      0.00%     79.88% # Class of committed instruction
system.cpu1.op_class_0::SimdSha1Hash                0      0.00%     79.88% # Class of committed instruction
system.cpu1.op_class_0::SimdSha1Hash2               0      0.00%     79.88% # Class of committed instruction
system.cpu1.op_class_0::SimdSha256Hash              0      0.00%     79.88% # Class of committed instruction
system.cpu1.op_class_0::SimdSha256Hash2             0      0.00%     79.88% # Class of committed instruction
system.cpu1.op_class_0::SimdShaSigma2               0      0.00%     79.88% # Class of committed instruction
system.cpu1.op_class_0::SimdShaSigma3               0      0.00%     79.88% # Class of committed instruction
system.cpu1.op_class_0::SimdPredAlu                 0      0.00%     79.88% # Class of committed instruction
system.cpu1.op_class_0::MemRead               2046688     10.82%     90.70% # Class of committed instruction
system.cpu1.op_class_0::MemWrite              1656607      8.76%     99.45% # Class of committed instruction
system.cpu1.op_class_0::FloatMemRead            64978      0.34%     99.80% # Class of committed instruction
system.cpu1.op_class_0::FloatMemWrite           38368      0.20%    100.00% # Class of committed instruction
system.cpu1.op_class_0::IprAccess                   0      0.00%    100.00% # Class of committed instruction
system.cpu1.op_class_0::InstPrefetch                0      0.00%    100.00% # Class of committed instruction
system.cpu1.op_class_0::total                18916380                       # Class of committed instruction
system.cpu1.tickCycles                       32514633                       # Number of cycles that the object actually ticked
system.cpu1.workload.numSyscalls                   39                       # Number of system calls
system.membus.snoop_filter.hit_multi_requests            0                       # Number of requests hitting in the snoop filter with multiple (>1) holders of the requested data.
system.membus.snoop_filter.hit_multi_snoops            0                       # Number of snoops hitting in the snoop filter with multiple (>1) holders of the requested data.
system.membus.snoop_filter.hit_single_requests      1078168                       # Number of requests hitting in the snoop filter with a single holder of the requested data.
system.membus.snoop_filter.hit_single_snoops            0                       # Number of snoops hitting in the snoop filter with a single holder of the requested data.
system.membus.snoop_filter.tot_requests       2157378                       # Total number of requests made to the snoop filter.
system.membus.snoop_filter.tot_snoops               0                       # Total number of snoops made to the snoop filter.
system.tol2bus.snoop_filter.hit_multi_requests            0                       # Number of requests hitting in the snoop filter with multiple (>1) holders of the requested data.
system.tol2bus.snoop_filter.hit_multi_snoops            0                       # Number of snoops hitting in the snoop filter with multiple (>1) holders of the requested data.
system.tol2bus.snoop_filter.hit_single_requests      2916069                       # Number of requests hitting in the snoop filter with a single holder of the requested data.
system.tol2bus.snoop_filter.hit_single_snoops         1592                       # Number of snoops hitting in the snoop filter with a single holder of the requested data.
system.tol2bus.snoop_filter.tot_requests      5832203                       # Total number of requests made to the snoop filter.
system.tol2bus.snoop_filter.tot_snoops           1592                       # Total number of snoops made to the snoop filter.
system.membus.trans_dist::ReadResp             397597                       # Transaction distribution
system.membus.trans_dist::WritebackDirty       686141                       # Transaction distribution
system.membus.trans_dist::CleanEvict           392027                       # Transaction distribution
system.membus.trans_dist::ReadExReq            681613                       # Transaction distribution
system.membus.trans_dist::ReadExResp           681612                       # Transaction distribution
system.membus.trans_dist::ReadSharedReq        397597                       # Transaction distribution
system.membus.pkt_count_system.l2.mem_side::system.mem_ctrls.port      3236587                       # Packet count per connected master and slave (bytes)
system.membus.pkt_count_system.l2.mem_side::total      3236587                       # Packet count per connected master and slave (bytes)
system.membus.pkt_count::total                3236587                       # Packet count per connected master and slave (bytes)
system.membus.pkt_size_system.l2.mem_side::system.mem_ctrls.port    112982400                       # Cumulative packet size per connected master and slave (bytes)
system.membus.pkt_size_system.l2.mem_side::total    112982400                       # Cumulative packet size per connected master and slave (bytes)
system.membus.pkt_size::total               112982400                       # Cumulative packet size per connected master and slave (bytes)
system.membus.snoops                                0                       # Total snoops (count)
system.membus.snoopTraffic                          0                       # Total snoop traffic (bytes)
system.membus.snoop_fanout::samples           1079210                       # Request fanout histogram
system.membus.snoop_fanout::mean                    0                       # Request fanout histogram
system.membus.snoop_fanout::stdev                   0                       # Request fanout histogram
system.membus.snoop_fanout::underflows              0      0.00%      0.00% # Request fanout histogram
system.membus.snoop_fanout::0                 1079210    100.00%    100.00% # Request fanout histogram
system.membus.snoop_fanout::1                       0      0.00%    100.00% # Request fanout histogram
system.membus.snoop_fanout::overflows               0      0.00%    100.00% # Request fanout histogram
system.membus.snoop_fanout::min_value               0                       # Request fanout histogram
system.membus.snoop_fanout::max_value               0                       # Request fanout histogram
system.membus.snoop_fanout::total             1079210                       # Request fanout histogram
system.membus.reqLayer4.occupancy          5266167000                       # Layer occupancy (ticks)
system.membus.reqLayer4.utilization               8.7                       # Layer utilization (%)
system.membus.respLayer1.occupancy         5745600750                       # Layer occupancy (ticks)
system.membus.respLayer1.utilization              9.5                       # Layer utilization (%)
system.membus.power_state.pwrStateResidencyTicks::UNDEFINED  60256652500                       # Cumulative time (in ticks) in various power states
system.voltage_domain.voltage                       1                       # Voltage in Volts
system.clk_domain.clock                          1000                       # Clock period in ticks
system.cpu0.icache.demand_hits::.cpu0.inst      2135020                       # number of demand (read+write) hits
system.cpu0.icache.demand_hits::total         2135020                       # number of demand (read+write) hits
system.cpu0.icache.overall_hits::.cpu0.inst      2135020                       # number of overall hits
system.cpu0.icache.overall_hits::total        2135020                       # number of overall hits
system.cpu0.icache.demand_misses::.cpu0.inst         8883                       # number of demand (read+write) misses
system.cpu0.icache.demand_misses::total          8883                       # number of demand (read+write) misses
system.cpu0.icache.overall_misses::.cpu0.inst         8883                       # number of overall misses
system.cpu0.icache.overall_misses::total         8883                       # number of overall misses
system.cpu0.icache.demand_miss_latency::.cpu0.inst    230048000                       # number of demand (read+write) miss cycles
system.cpu0.icache.demand_miss_latency::total    230048000                       # number of demand (read+write) miss cycles
system.cpu0.icache.overall_miss_latency::.cpu0.inst    230048000                       # number of overall miss cycles
system.cpu0.icache.overall_miss_latency::total    230048000                       # number of overall miss cycles
system.cpu0.icache.demand_accesses::.cpu0.inst      2143903                       # number of demand (read+write) accesses
system.cpu0.icache.demand_accesses::total      2143903                       # number of demand (read+write) accesses
system.cpu0.icache.overall_accesses::.cpu0.inst      2143903                       # number of overall (read+write) accesses
system.cpu0.icache.overall_accesses::total      2143903                       # number of overall (read+write) accesses
system.cpu0.icache.demand_miss_rate::.cpu0.inst     0.004143                       # miss rate for demand accesses
system.cpu0.icache.demand_miss_rate::total     0.004143                       # miss rate for demand accesses
system.cpu0.icache.overall_miss_rate::.cpu0.inst     0.004143                       # miss rate for overall accesses
system.cpu0.icache.overall_miss_rate::total     0.004143                       # miss rate for overall accesses
system.cpu0.icache.demand_avg_miss_latency::.cpu0.inst 25897.557132                       # average overall miss latency
system.cpu0.icache.demand_avg_miss_latency::total 25897.557132                       # average overall miss latency
system.cpu0.icache.overall_avg_miss_latency::.cpu0.inst 25897.557132                       # average overall miss latency
system.cpu0.icache.overall_avg_miss_latency::total 25897.557132                       # average overall miss latency
system.cpu0.icache.blocked_cycles::no_mshrs            0                       # number of cycles access was blocked
system.cpu0.icache.blocked_cycles::no_targets            0                       # number of cycles access was blocked
system.cpu0.icache.blocked::no_mshrs                0                       # number of cycles access was blocked
system.cpu0.icache.blocked::no_targets              0                       # number of cycles access was blocked
system.cpu0.icache.avg_blocked_cycles::no_mshrs          nan                       # average number of cycles each access was blocked
system.cpu0.icache.avg_blocked_cycles::no_targets          nan                       # average number of cycles each access was blocked
system.cpu0.icache.writebacks::.writebacks         8867                       # number of writebacks
system.cpu0.icache.writebacks::total             8867                       # number of writebacks
system.cpu0.icache.demand_mshr_misses::.cpu0.inst         8883                       # number of demand (read+write) MSHR misses
system.cpu0.icache.demand_mshr_misses::total         8883                       # number of demand (read+write) MSHR misses
system.cpu0.icache.overall_mshr_misses::.cpu0.inst         8883                       # number of overall MSHR misses
system.cpu0.icache.overall_mshr_misses::total         8883                       # number of overall MSHR misses
system.cpu0.icache.demand_mshr_miss_latency::.cpu0.inst    221165000                       # number of demand (read+write) MSHR miss cycles
system.cpu0.icache.demand_mshr_miss_latency::total    221165000                       # number of demand (read+write) MSHR miss cycles
system.cpu0.icache.overall_mshr_miss_latency::.cpu0.inst    221165000                       # number of overall MSHR miss cycles
system.cpu0.icache.overall_mshr_miss_latency::total    221165000                       # number of overall MSHR miss cycles
system.cpu0.icache.demand_mshr_miss_rate::.cpu0.inst     0.004143                       # mshr miss rate for demand accesses
system.cpu0.icache.demand_mshr_miss_rate::total     0.004143                       # mshr miss rate for demand accesses
system.cpu0.icache.overall_mshr_miss_rate::.cpu0.inst     0.004143                       # mshr miss rate for overall accesses
system.cpu0.icache.overall_mshr_miss_rate::total     0.004143                       # mshr miss rate for overall accesses
system.cpu0.icache.demand_avg_mshr_miss_latency::.cpu0.inst 24897.557132                       # average overall mshr miss latency
system.cpu0.icache.demand_avg_mshr_miss_latency::total 24897.557132                       # average overall mshr miss latency
system.cpu0.icache.overall_avg_mshr_miss_latency::.cpu0.inst 24897.557132                       # average overall mshr miss latency
system.cpu0.icache.overall_avg_mshr_miss_latency::total 24897.557132                       # average overall mshr miss latency
system.cpu0.icache.replacements                  8867                       # number of replacements
system.cpu0.icache.ReadReq_hits::.cpu0.inst      2135020                       # number of ReadReq hits
system.cpu0.icache.ReadReq_hits::total        2135020                       # number of ReadReq hits
system.cpu0.icache.ReadReq_misses::.cpu0.inst         8883                       # number of ReadReq misses
system.cpu0.icache.ReadReq_misses::total         8883                       # number of ReadReq misses
system.cpu0.icache.ReadReq_miss_latency::.cpu0.inst    230048000                       # number of ReadReq miss cycles
system.cpu0.icache.ReadReq_miss_latency::total    230048000                       # number of ReadReq miss cycles
system.cpu0.icache.ReadReq_accesses::.cpu0.inst      2143903                       # number of ReadReq accesses(hits+misses)
system.cpu0.icache.ReadReq_accesses::total      2143903                       # number of ReadReq accesses(hits+misses)
system.cpu0.icache.ReadReq_miss_rate::.cpu0.inst     0.004143                       # miss rate for ReadReq accesses
system.cpu0.icache.ReadReq_miss_rate::total     0.004143                       # miss rate for ReadReq accesses
system.cpu0.icache.ReadReq_avg_miss_latency::.cpu0.inst 25897.557132                       # average ReadReq miss latency
system.cpu0.icache.ReadReq_avg_miss_latency::total 25897.557132                       # average ReadReq miss latency
system.cpu0.icache.ReadReq_mshr_misses::.cpu0.inst         8883                       # number of ReadReq MSHR misses
system.cpu0.icache.ReadReq_mshr_misses::total         8883                       # number of ReadReq MSHR misses
system.cpu0.icache.ReadReq_mshr_miss_latency::.cpu0.inst    221165000                       # number of ReadReq MSHR miss cycles
system.cpu0.icache.ReadReq_mshr_miss_latency::total    221165000                       # number of ReadReq MSHR miss cycles
system.cpu0.icache.ReadReq_mshr_miss_rate::.cpu0.inst     0.004143                       # mshr miss rate for ReadReq accesses
system.cpu0.icache.ReadReq_mshr_miss_rate::total     0.004143                       # mshr miss rate for ReadReq accesses
system.cpu0.icache.ReadReq_avg_mshr_miss_latency::.cpu0.inst 24897.557132                       # average ReadReq mshr miss latency
system.cpu0.icache.ReadReq_avg_mshr_miss_latency::total 24897.557132                       # average ReadReq mshr miss latency
system.cpu0.icache.power_state.pwrStateResidencyTicks::UNDEFINED  60256652500                       # Cumulative time (in ticks) in various power states
system.cpu0.icache.tags.tagsinuse           15.999773                       # Cycle average of tags in use
system.cpu0.icache.tags.total_refs            2143903                       # Total number of references to valid blocks.
system.cpu0.icache.tags.sampled_refs             8883                       # Sample count of references to valid blocks.
system.cpu0.icache.tags.avg_refs           241.348981                       # Average number of references to valid blocks.
system.cpu0.icache.tags.warmup_cycle            87500                       # Cycle when the warmup percentage was hit.
system.cpu0.icache.tags.occ_blocks::.cpu0.inst    15.999773                       # Average occupied blocks per requestor
system.cpu0.icache.tags.occ_percent::.cpu0.inst     0.999986                       # Average percentage of cache occupancy
system.cpu0.icache.tags.occ_percent::total     0.999986                       # Average percentage of cache occupancy
system.cpu0.icache.tags.occ_task_id_blocks::1024           16                       # Occupied blocks per task id
system.cpu0.icache.tags.age_task_id_blocks_1024::4           16                       # Occupied blocks per task id
system.cpu0.icache.tags.occ_task_id_percent::1024            1                       # Percentage of cache occupancy per task id
system.cpu0.icache.tags.tag_accesses         17160107                       # Number of tag accesses
system.cpu0.icache.tags.data_accesses        17160107                       # Number of data accesses
system.cpu0.icache.tags.power_state.pwrStateResidencyTicks::UNDEFINED  60256652500                       # Cumulative time (in ticks) in various power states
system.cpu0.dtb.walker.power_state.pwrStateResidencyTicks::UNDEFINED  60256652500                       # Cumulative time (in ticks) in various power states
system.cpu0.interrupts.clk_domain.clock          8000                       # Clock period in ticks
system.cpu0.itb_walker_cache.blocked_cycles::no_mshrs            0                       # number of cycles access was blocked
system.cpu0.itb_walker_cache.blocked_cycles::no_targets            0                       # number of cycles access was blocked
system.cpu0.itb_walker_cache.blocked::no_mshrs            0                       # number of cycles access was blocked
system.cpu0.itb_walker_cache.blocked::no_targets            0                       # number of cycles access was blocked
system.cpu0.itb_walker_cache.avg_blocked_cycles::no_mshrs          nan                       # average number of cycles each access was blocked
system.cpu0.itb_walker_cache.avg_blocked_cycles::no_targets          nan                       # average number of cycles each access was blocked
system.cpu0.itb_walker_cache.replacements            0                       # number of replacements
system.cpu0.itb_walker_cache.power_state.pwrStateResidencyTicks::UNDEFINED  60256652500                       # Cumulative time (in ticks) in various power states
system.cpu0.itb_walker_cache.tags.tagsinuse            0                       # Cycle average of tags in use
system.cpu0.itb_walker_cache.tags.total_refs            0                       # Total number of references to valid blocks.
system.cpu0.itb_walker_cache.tags.sampled_refs            0                       # Sample count of references to valid blocks.
system.cpu0.itb_walker_cache.tags.avg_refs          nan                       # Average number of references to valid blocks.
system.cpu0.itb_walker_cache.tags.warmup_cycle            0                       # Cycle when the warmup percentage was hit.
system.cpu0.itb_walker_cache.tags.tag_accesses            0                       # Number of tag accesses
system.cpu0.itb_walker_cache.tags.data_accesses            0                       # Number of data accesses
system.cpu0.itb_walker_cache.tags.power_state.pwrStateResidencyTicks::UNDEFINED  60256652500                       # Cumulative time (in ticks) in various power states
system.cpu0.dtb_walker_cache.blocked_cycles::no_mshrs            0                       # number of cycles access was blocked
system.cpu0.dtb_walker_cache.blocked_cycles::no_targets            0                       # number of cycles access was blocked
system.cpu0.dtb_walker_cache.blocked::no_mshrs            0                       # number of cycles access was blocked
system.cpu0.dtb_walker_cache.blocked::no_targets            0                       # number of cycles access was blocked
system.cpu0.dtb_walker_cache.avg_blocked_cycles::no_mshrs          nan                       # average number of cycles each access was blocked
system.cpu0.dtb_walker_cache.avg_blocked_cycles::no_targets          nan                       # average number of cycles each access was blocked
system.cpu0.dtb_walker_cache.replacements            0                       # number of replacements
system.cpu0.dtb_walker_cache.power_state.pwrStateResidencyTicks::UNDEFINED  60256652500                       # Cumulative time (in ticks) in various power states
system.cpu0.dtb_walker_cache.tags.tagsinuse            0                       # Cycle average of tags in use
system.cpu0.dtb_walker_cache.tags.total_refs            0                       # Total number of references to valid blocks.
system.cpu0.dtb_walker_cache.tags.sampled_refs            0                       # Sample count of references to valid blocks.
system.cpu0.dtb_walker_cache.tags.avg_refs          nan                       # Average number of references to valid blocks.
system.cpu0.dtb_walker_cache.tags.warmup_cycle            0                       # Cycle when the warmup percentage was hit.
system.cpu0.dtb_walker_cache.tags.tag_accesses            0                       # Number of tag accesses
system.cpu0.dtb_walker_cache.tags.data_accesses            0                       # Number of data accesses
system.cpu0.dtb_walker_cache.tags.power_state.pwrStateResidencyTicks::UNDEFINED  60256652500                       # Cumulative time (in ticks) in various power states
system.cpu0.dcache.demand_hits::.cpu0.data      4756994                       # number of demand (read+write) hits
system.cpu0.dcache.demand_hits::total         4756994                       # number of demand (read+write) hits
system.cpu0.dcache.overall_hits::.cpu0.data      4756994                       # number of overall hits
system.cpu0.dcache.overall_hits::total        4756994                       # number of overall hits
system.cpu0.dcache.demand_misses::.cpu0.data      1300755                       # number of demand (read+write) misses
system.cpu0.dcache.demand_misses::total       1300755                       # number of demand (read+write) misses
system.cpu0.dcache.overall_misses::.cpu0.data      1300755                       # number of overall misses
system.cpu0.dcache.overall_misses::total      1300755                       # number of overall misses
system.cpu0.dcache.demand_miss_latency::.cpu0.data 107812619000                       # number of demand (read+write) miss cycles
system.cpu0.dcache.demand_miss_latency::total 107812619000                       # number of demand (read+write) miss cycles
system.cpu0.dcache.overall_miss_latency::.cpu0.data 107812619000                       # number of overall miss cycles
system.cpu0.dcache.overall_miss_latency::total 107812619000                       # number of overall miss cycles
system.cpu0.dcache.demand_accesses::.cpu0.data      6057749                       # number of demand (read+write) accesses
system.cpu0.dcache.demand_accesses::total      6057749                       # number of demand (read+write) accesses
system.cpu0.dcache.overall_accesses::.cpu0.data      6057749                       # number of overall (read+write) accesses
system.cpu0.dcache.overall_accesses::total      6057749                       # number of overall (read+write) accesses
system.cpu0.dcache.demand_miss_rate::.cpu0.data     0.214726                       # miss rate for demand accesses
system.cpu0.dcache.demand_miss_rate::total     0.214726                       # miss rate for demand accesses
system.cpu0.dcache.overall_miss_rate::.cpu0.data     0.214726                       # miss rate for overall accesses
system.cpu0.dcache.overall_miss_rate::total     0.214726                       # miss rate for overall accesses
system.cpu0.dcache.demand_avg_miss_latency::.cpu0.data 82884.646993                       # average overall miss latency
system.cpu0.dcache.demand_avg_miss_latency::total 82884.646993                       # average overall miss latency
system.cpu0.dcache.overall_avg_miss_latency::.cpu0.data 82884.646993                       # average overall miss latency
system.cpu0.dcache.overall_avg_miss_latency::total 82884.646993                       # average overall miss latency
system.cpu0.dcache.blocked_cycles::no_mshrs            0                       # number of cycles access was blocked
system.cpu0.dcache.blocked_cycles::no_targets            0                       # number of cycles access was blocked
system.cpu0.dcache.blocked::no_mshrs                0                       # number of cycles access was blocked
system.cpu0.dcache.blocked::no_targets              0                       # number of cycles access was blocked
system.cpu0.dcache.avg_blocked_cycles::no_mshrs          nan                       # average number of cycles each access was blocked
system.cpu0.dcache.avg_blocked_cycles::no_targets          nan                       # average number of cycles each access was blocked
system.cpu0.dcache.writebacks::.writebacks       645596                       # number of writebacks
system.cpu0.dcache.writebacks::total           645596                       # number of writebacks
system.cpu0.dcache.demand_mshr_hits::.cpu0.data       641160                       # number of demand (read+write) MSHR hits
system.cpu0.dcache.demand_mshr_hits::total       641160                       # number of demand (read+write) MSHR hits
system.cpu0.dcache.overall_mshr_hits::.cpu0.data       641160                       # number of overall MSHR hits
system.cpu0.dcache.overall_mshr_hits::total       641160                       # number of overall MSHR hits
system.cpu0.dcache.demand_mshr_misses::.cpu0.data       659595                       # number of demand (read+write) MSHR misses
system.cpu0.dcache.demand_mshr_misses::total       659595                       # number of demand (read+write) MSHR misses
system.cpu0.dcache.overall_mshr_misses::.cpu0.data       659595                       # number of overall MSHR misses
system.cpu0.dcache.overall_mshr_misses::total       659595                       # number of overall MSHR misses
system.cpu0.dcache.demand_mshr_miss_latency::.cpu0.data  53424240000                       # number of demand (read+write) MSHR miss cycles
system.cpu0.dcache.demand_mshr_miss_latency::total  53424240000                       # number of demand (read+write) MSHR miss cycles
system.cpu0.dcache.overall_mshr_miss_latency::.cpu0.data  53424240000                       # number of overall MSHR miss cycles
system.cpu0.dcache.overall_mshr_miss_latency::total  53424240000                       # number of overall MSHR miss cycles
system.cpu0.dcache.demand_mshr_miss_rate::.cpu0.data     0.108885                       # mshr miss rate for demand accesses
system.cpu0.dcache.demand_mshr_miss_rate::total     0.108885                       # mshr miss rate for demand accesses
system.cpu0.dcache.overall_mshr_miss_rate::.cpu0.data     0.108885                       # mshr miss rate for overall accesses
system.cpu0.dcache.overall_mshr_miss_rate::total     0.108885                       # mshr miss rate for overall accesses
system.cpu0.dcache.demand_avg_mshr_miss_latency::.cpu0.data 80995.519978                       # average overall mshr miss latency
system.cpu0.dcache.demand_avg_mshr_miss_latency::total 80995.519978                       # average overall mshr miss latency
system.cpu0.dcache.overall_avg_mshr_miss_latency::.cpu0.data 80995.519978                       # average overall mshr miss latency
system.cpu0.dcache.overall_avg_mshr_miss_latency::total 80995.519978                       # average overall mshr miss latency
system.cpu0.dcache.replacements                659578                       # number of replacements
system.cpu0.dcache.ReadReq_hits::.cpu0.data       826217                       # number of ReadReq hits
system.cpu0.dcache.ReadReq_hits::total         826217                       # number of ReadReq hits
system.cpu0.dcache.ReadReq_misses::.cpu0.data        16402                       # number of ReadReq misses
system.cpu0.dcache.ReadReq_misses::total        16402                       # number of ReadReq misses
system.cpu0.dcache.ReadReq_miss_latency::.cpu0.data    415400500                       # number of ReadReq miss cycles
system.cpu0.dcache.ReadReq_miss_latency::total    415400500                       # number of ReadReq miss cycles
system.cpu0.dcache.ReadReq_accesses::.cpu0.data       842619                       # number of ReadReq accesses(hits+misses)
system.cpu0.dcache.ReadReq_accesses::total       842619                       # number of ReadReq accesses(hits+misses)
system.cpu0.dcache.ReadReq_miss_rate::.cpu0.data     0.019465                       # miss rate for ReadReq accesses
system.cpu0.dcache.ReadReq_miss_rate::total     0.019465                       # miss rate for ReadReq accesses
system.cpu0.dcache.ReadReq_avg_miss_latency::.cpu0.data 25326.210218                       # average ReadReq miss latency
system.cpu0.dcache.ReadReq_avg_miss_latency::total 25326.210218                       # average ReadReq miss latency
system.cpu0.dcache.ReadReq_mshr_hits::.cpu0.data          303                       # number of ReadReq MSHR hits
system.cpu0.dcache.ReadReq_mshr_hits::total          303                       # number of ReadReq MSHR hits
system.cpu0.dcache.ReadReq_mshr_misses::.cpu0.data        16099                       # number of ReadReq MSHR misses
system.cpu0.dcache.ReadReq_mshr_misses::total        16099                       # number of ReadReq MSHR misses
system.cpu0.dcache.ReadReq_mshr_miss_latency::.cpu0.data    386509500                       # number of ReadReq MSHR miss cycles
system.cpu0.dcache.ReadReq_mshr_miss_latency::total    386509500                       # number of ReadReq MSHR miss cycles
system.cpu0.dcache.ReadReq_mshr_miss_rate::.cpu0.data     0.019106                       # mshr miss rate for ReadReq accesses
system.cpu0.dcache.ReadReq_mshr_miss_rate::total     0.019106                       # mshr miss rate for ReadReq accesses
system.cpu0.dcache.ReadReq_avg_mshr_miss_latency::.cpu0.data 24008.292441                       # average ReadReq mshr miss latency
system.cpu0.dcache.ReadReq_avg_mshr_miss_latency::total 24008.292441                       # average ReadReq mshr miss latency
system.cpu0.dcache.WriteReq_hits::.cpu0.data      3930777                       # number of WriteReq hits
system.cpu0.dcache.WriteReq_hits::total       3930777                       # number of WriteReq hits
system.cpu0.dcache.WriteReq_misses::.cpu0.data      1284353                       # number of WriteReq misses
system.cpu0.dcache.WriteReq_misses::total      1284353                       # number of WriteReq misses
system.cpu0.dcache.WriteReq_miss_latency::.cpu0.data 107397218500                       # number of WriteReq miss cycles
system.cpu0.dcache.WriteReq_miss_latency::total 107397218500                       # number of WriteReq miss cycles
system.cpu0.dcache.WriteReq_accesses::.cpu0.data      5215130                       # number of WriteReq accesses(hits+misses)
system.cpu0.dcache.WriteReq_accesses::total      5215130                       # number of WriteReq accesses(hits+misses)
system.cpu0.dcache.WriteReq_miss_rate::.cpu0.data     0.246274                       # miss rate for WriteReq accesses
system.cpu0.dcache.WriteReq_miss_rate::total     0.246274                       # miss rate for WriteReq accesses
system.cpu0.dcache.WriteReq_avg_miss_latency::.cpu0.data 83619.704629                       # average WriteReq miss latency
system.cpu0.dcache.WriteReq_avg_miss_latency::total 83619.704629                       # average WriteReq miss latency
system.cpu0.dcache.WriteReq_mshr_hits::.cpu0.data       640857                       # number of WriteReq MSHR hits
system.cpu0.dcache.WriteReq_mshr_hits::total       640857                       # number of WriteReq MSHR hits
system.cpu0.dcache.WriteReq_mshr_misses::.cpu0.data       643496                       # number of WriteReq MSHR misses
system.cpu0.dcache.WriteReq_mshr_misses::total       643496                       # number of WriteReq MSHR misses
system.cpu0.dcache.WriteReq_mshr_miss_latency::.cpu0.data  53037730500                       # number of WriteReq MSHR miss cycles
system.cpu0.dcache.WriteReq_mshr_miss_latency::total  53037730500                       # number of WriteReq MSHR miss cycles
system.cpu0.dcache.WriteReq_mshr_miss_rate::.cpu0.data     0.123390                       # mshr miss rate for WriteReq accesses
system.cpu0.dcache.WriteReq_mshr_miss_rate::total     0.123390                       # mshr miss rate for WriteReq accesses
system.cpu0.dcache.WriteReq_avg_mshr_miss_latency::.cpu0.data 82421.227949                       # average WriteReq mshr miss latency
system.cpu0.dcache.WriteReq_avg_mshr_miss_latency::total 82421.227949                       # average WriteReq mshr miss latency
system.cpu0.dcache.power_state.pwrStateResidencyTicks::UNDEFINED  60256652500                       # Cumulative time (in ticks) in various power states
system.cpu0.dcache.tags.tagsinuse           15.999788                       # Cycle average of tags in use
system.cpu0.dcache.tags.total_refs            5416588                       # Total number of references to valid blocks.
system.cpu0.dcache.tags.sampled_refs           659594                       # Sample count of references to valid blocks.
system.cpu0.dcache.tags.avg_refs             8.212003                       # Average number of references to valid blocks.
system.cpu0.dcache.tags.warmup_cycle           178500                       # Cycle when the warmup percentage was hit.
system.cpu0.dcache.tags.occ_blocks::.cpu0.data    15.999788                       # Average occupied blocks per requestor
system.cpu0.dcache.tags.occ_percent::.cpu0.data     0.999987                       # Average percentage of cache occupancy
system.cpu0.dcache.tags.occ_percent::total     0.999987                       # Average percentage of cache occupancy
system.cpu0.dcache.tags.occ_task_id_blocks::1024           16                       # Occupied blocks per task id
system.cpu0.dcache.tags.age_task_id_blocks_1024::0           15                       # Occupied blocks per task id
system.cpu0.dcache.tags.age_task_id_blocks_1024::4            1                       # Occupied blocks per task id
system.cpu0.dcache.tags.occ_task_id_percent::1024            1                       # Percentage of cache occupancy per task id
system.cpu0.dcache.tags.tag_accesses         49121586                       # Number of tag accesses
system.cpu0.dcache.tags.data_accesses        49121586                       # Number of data accesses
system.cpu0.dcache.tags.power_state.pwrStateResidencyTicks::UNDEFINED  60256652500                       # Cumulative time (in ticks) in various power states
system.cpu0.power_state.pwrStateResidencyTicks::ON  60256652500                       # Cumulative time (in ticks) in various power states
system.cpu0.itb.walker.power_state.pwrStateResidencyTicks::UNDEFINED  60256652500                       # Cumulative time (in ticks) in various power states
system.cpu1.icache.demand_hits::.cpu1.inst      1715263                       # number of demand (read+write) hits
system.cpu1.icache.demand_hits::total         1715263                       # number of demand (read+write) hits
system.cpu1.icache.overall_hits::.cpu1.inst      1715263                       # number of overall hits
system.cpu1.icache.overall_hits::total        1715263                       # number of overall hits
system.cpu1.icache.demand_misses::.cpu1.inst      1610673                       # number of demand (read+write) misses
system.cpu1.icache.demand_misses::total       1610673                       # number of demand (read+write) misses
system.cpu1.icache.overall_misses::.cpu1.inst      1610673                       # number of overall misses
system.cpu1.icache.overall_misses::total      1610673                       # number of overall misses
system.cpu1.icache.demand_miss_latency::.cpu1.inst  45002929500                       # number of demand (read+write) miss cycles
system.cpu1.icache.demand_miss_latency::total  45002929500                       # number of demand (read+write) miss cycles
system.cpu1.icache.overall_miss_latency::.cpu1.inst  45002929500                       # number of overall miss cycles
system.cpu1.icache.overall_miss_latency::total  45002929500                       # number of overall miss cycles
system.cpu1.icache.demand_accesses::.cpu1.inst      3325936                       # number of demand (read+write) accesses
system.cpu1.icache.demand_accesses::total      3325936                       # number of demand (read+write) accesses
system.cpu1.icache.overall_accesses::.cpu1.inst      3325936                       # number of overall (read+write) accesses
system.cpu1.icache.overall_accesses::total      3325936                       # number of overall (read+write) accesses
system.cpu1.icache.demand_miss_rate::.cpu1.inst     0.484277                       # miss rate for demand accesses
system.cpu1.icache.demand_miss_rate::total     0.484277                       # miss rate for demand accesses
system.cpu1.icache.overall_miss_rate::.cpu1.inst     0.484277                       # miss rate for overall accesses
system.cpu1.icache.overall_miss_rate::total     0.484277                       # miss rate for overall accesses
system.cpu1.icache.demand_avg_miss_latency::.cpu1.inst 27940.450669                       # average overall miss latency
system.cpu1.icache.demand_avg_miss_latency::total 27940.450669                       # average overall miss latency
system.cpu1.icache.overall_avg_miss_latency::.cpu1.inst 27940.450669                       # average overall miss latency
system.cpu1.icache.overall_avg_miss_latency::total 27940.450669                       # average overall miss latency
system.cpu1.icache.blocked_cycles::no_mshrs            0                       # number of cycles access was blocked
system.cpu1.icache.blocked_cycles::no_targets            0                       # number of cycles access was blocked
system.cpu1.icache.blocked::no_mshrs                0                       # number of cycles access was blocked
system.cpu1.icache.blocked::no_targets              0                       # number of cycles access was blocked
system.cpu1.icache.avg_blocked_cycles::no_mshrs          nan                       # average number of cycles each access was blocked
system.cpu1.icache.avg_blocked_cycles::no_targets          nan                       # average number of cycles each access was blocked
system.cpu1.icache.writebacks::.writebacks      1610657                       # number of writebacks
system.cpu1.icache.writebacks::total          1610657                       # number of writebacks
system.cpu1.icache.demand_mshr_misses::.cpu1.inst      1610673                       # number of demand (read+write) MSHR misses
system.cpu1.icache.demand_mshr_misses::total      1610673                       # number of demand (read+write) MSHR misses
system.cpu1.icache.overall_mshr_misses::.cpu1.inst      1610673                       # number of overall MSHR misses
system.cpu1.icache.overall_mshr_misses::total      1610673                       # number of overall MSHR misses
system.cpu1.icache.demand_mshr_miss_latency::.cpu1.inst  43392256500                       # number of demand (read+write) MSHR miss cycles
system.cpu1.icache.demand_mshr_miss_latency::total  43392256500                       # number of demand (read+write) MSHR miss cycles
system.cpu1.icache.overall_mshr_miss_latency::.cpu1.inst  43392256500                       # number of overall MSHR miss cycles
system.cpu1.icache.overall_mshr_miss_latency::total  43392256500                       # number of overall MSHR miss cycles
system.cpu1.icache.demand_mshr_miss_rate::.cpu1.inst     0.484277                       # mshr miss rate for demand accesses
system.cpu1.icache.demand_mshr_miss_rate::total     0.484277                       # mshr miss rate for demand accesses
system.cpu1.icache.overall_mshr_miss_rate::.cpu1.inst     0.484277                       # mshr miss rate for overall accesses
system.cpu1.icache.overall_mshr_miss_rate::total     0.484277                       # mshr miss rate for overall accesses
system.cpu1.icache.demand_avg_mshr_miss_latency::.cpu1.inst 26940.450669                       # average overall mshr miss latency
system.cpu1.icache.demand_avg_mshr_miss_latency::total 26940.450669                       # average overall mshr miss latency
system.cpu1.icache.overall_avg_mshr_miss_latency::.cpu1.inst 26940.450669                       # average overall mshr miss latency
system.cpu1.icache.overall_avg_mshr_miss_latency::total 26940.450669                       # average overall mshr miss latency
system.cpu1.icache.replacements               1610657                       # number of replacements
system.cpu1.icache.ReadReq_hits::.cpu1.inst      1715263                       # number of ReadReq hits
system.cpu1.icache.ReadReq_hits::total        1715263                       # number of ReadReq hits
system.cpu1.icache.ReadReq_misses::.cpu1.inst      1610673                       # number of ReadReq misses
system.cpu1.icache.ReadReq_misses::total      1610673                       # number of ReadReq misses
system.cpu1.icache.ReadReq_miss_latency::.cpu1.inst  45002929500                       # number of ReadReq miss cycles
system.cpu1.icache.ReadReq_miss_latency::total  45002929500                       # number of ReadReq miss cycles
system.cpu1.icache.ReadReq_accesses::.cpu1.inst      3325936                       # number of ReadReq accesses(hits+misses)
system.cpu1.icache.ReadReq_accesses::total      3325936                       # number of ReadReq accesses(hits+misses)
system.cpu1.icache.ReadReq_miss_rate::.cpu1.inst     0.484277                       # miss rate for ReadReq accesses
system.cpu1.icache.ReadReq_miss_rate::total     0.484277                       # miss rate for ReadReq accesses
system.cpu1.icache.ReadReq_avg_miss_latency::.cpu1.inst 27940.450669                       # average ReadReq miss latency
system.cpu1.icache.ReadReq_avg_miss_latency::total 27940.450669                       # average ReadReq miss latency
system.cpu1.icache.ReadReq_mshr_misses::.cpu1.inst      1610673                       # number of ReadReq MSHR misses
system.cpu1.icache.ReadReq_mshr_misses::total      1610673                       # number of ReadReq MSHR misses
system.cpu1.icache.ReadReq_mshr_miss_latency::.cpu1.inst  43392256500                       # number of ReadReq MSHR miss cycles
system.cpu1.icache.ReadReq_mshr_miss_latency::total  43392256500                       # number of ReadReq MSHR miss cycles
system.cpu1.icache.ReadReq_mshr_miss_rate::.cpu1.inst     0.484277                       # mshr miss rate for ReadReq accesses
system.cpu1.icache.ReadReq_mshr_miss_rate::total     0.484277                       # mshr miss rate for ReadReq accesses
system.cpu1.icache.ReadReq_avg_mshr_miss_latency::.cpu1.inst 26940.450669                       # average ReadReq mshr miss latency
system.cpu1.icache.ReadReq_avg_mshr_miss_latency::total 26940.450669                       # average ReadReq mshr miss latency
system.cpu1.icache.power_state.pwrStateResidencyTicks::UNDEFINED  60256652500                       # Cumulative time (in ticks) in various power states
system.cpu1.icache.tags.tagsinuse           15.999764                       # Cycle average of tags in use
system.cpu1.icache.tags.total_refs            3325936                       # Total number of references to valid blocks.
system.cpu1.icache.tags.sampled_refs          1610673                       # Sample count of references to valid blocks.
system.cpu1.icache.tags.avg_refs             2.064936                       # Average number of references to valid blocks.
system.cpu1.icache.tags.warmup_cycle            94500                       # Cycle when the warmup percentage was hit.
system.cpu1.icache.tags.occ_blocks::.cpu1.inst    15.999764                       # Average occupied blocks per requestor
system.cpu1.icache.tags.occ_percent::.cpu1.inst     0.999985                       # Average percentage of cache occupancy
system.cpu1.icache.tags.occ_percent::total     0.999985                       # Average percentage of cache occupancy
system.cpu1.icache.tags.occ_task_id_blocks::1024           16                       # Occupied blocks per task id
system.cpu1.icache.tags.age_task_id_blocks_1024::0           16                       # Occupied blocks per task id
system.cpu1.icache.tags.occ_task_id_percent::1024            1                       # Percentage of cache occupancy per task id
system.cpu1.icache.tags.tag_accesses         28218161                       # Number of tag accesses
system.cpu1.icache.tags.data_accesses        28218161                       # Number of data accesses
system.cpu1.icache.tags.power_state.pwrStateResidencyTicks::UNDEFINED  60256652500                       # Cumulative time (in ticks) in various power states
system.cpu1.dtb.walker.power_state.pwrStateResidencyTicks::UNDEFINED  60256652500                       # Cumulative time (in ticks) in various power states
system.cpu1.interrupts.clk_domain.clock          8000                       # Clock period in ticks
system.cpu1.itb_walker_cache.blocked_cycles::no_mshrs            0                       # number of cycles access was blocked
system.cpu1.itb_walker_cache.blocked_cycles::no_targets            0                       # number of cycles access was blocked
system.cpu1.itb_walker_cache.blocked::no_mshrs            0                       # number of cycles access was blocked
system.cpu1.itb_walker_cache.blocked::no_targets            0                       # number of cycles access was blocked
system.cpu1.itb_walker_cache.avg_blocked_cycles::no_mshrs          nan                       # average number of cycles each access was blocked
system.cpu1.itb_walker_cache.avg_blocked_cycles::no_targets          nan                       # average number of cycles each access was blocked
system.cpu1.itb_walker_cache.replacements            0                       # number of replacements
system.cpu1.itb_walker_cache.power_state.pwrStateResidencyTicks::UNDEFINED  60256652500                       # Cumulative time (in ticks) in various power states
system.cpu1.itb_walker_cache.tags.tagsinuse            0                       # Cycle average of tags in use
system.cpu1.itb_walker_cache.tags.total_refs            0                       # Total number of references to valid blocks.
system.cpu1.itb_walker_cache.tags.sampled_refs            0                       # Sample count of references to valid blocks.
system.cpu1.itb_walker_cache.tags.avg_refs          nan                       # Average number of references to valid blocks.
system.cpu1.itb_walker_cache.tags.warmup_cycle            0                       # Cycle when the warmup percentage was hit.
system.cpu1.itb_walker_cache.tags.tag_accesses            0                       # Number of tag accesses
system.cpu1.itb_walker_cache.tags.data_accesses            0                       # Number of data accesses
system.cpu1.itb_walker_cache.tags.power_state.pwrStateResidencyTicks::UNDEFINED  60256652500                       # Cumulative time (in ticks) in various power states
system.cpu1.dtb_walker_cache.blocked_cycles::no_mshrs            0                       # number of cycles access was blocked
system.cpu1.dtb_walker_cache.blocked_cycles::no_targets            0                       # number of cycles access was blocked
system.cpu1.dtb_walker_cache.blocked::no_mshrs            0                       # number of cycles access was blocked
system.cpu1.dtb_walker_cache.blocked::no_targets            0                       # number of cycles access was blocked
system.cpu1.dtb_walker_cache.avg_blocked_cycles::no_mshrs          nan                       # average number of cycles each access was blocked
system.cpu1.dtb_walker_cache.avg_blocked_cycles::no_targets          nan                       # average number of cycles each access was blocked
system.cpu1.dtb_walker_cache.replacements            0                       # number of replacements
system.cpu1.dtb_walker_cache.power_state.pwrStateResidencyTicks::UNDEFINED  60256652500                       # Cumulative time (in ticks) in various power states
system.cpu1.dtb_walker_cache.tags.tagsinuse            0                       # Cycle average of tags in use
system.cpu1.dtb_walker_cache.tags.total_refs            0                       # Total number of references to valid blocks.
system.cpu1.dtb_walker_cache.tags.sampled_refs            0                       # Sample count of references to valid blocks.
system.cpu1.dtb_walker_cache.tags.avg_refs          nan                       # Average number of references to valid blocks.
system.cpu1.dtb_walker_cache.tags.warmup_cycle            0                       # Cycle when the warmup percentage was hit.
system.cpu1.dtb_walker_cache.tags.tag_accesses            0                       # Number of tag accesses
system.cpu1.dtb_walker_cache.tags.data_accesses            0                       # Number of data accesses
system.cpu1.dtb_walker_cache.tags.power_state.pwrStateResidencyTicks::UNDEFINED  60256652500                       # Cumulative time (in ticks) in various power states
system.cpu1.dcache.demand_hits::.cpu1.data      3401134                       # number of demand (read+write) hits
system.cpu1.dcache.demand_hits::total         3401134                       # number of demand (read+write) hits
system.cpu1.dcache.overall_hits::.cpu1.data      3401134                       # number of overall hits
system.cpu1.dcache.overall_hits::total        3401134                       # number of overall hits
system.cpu1.dcache.demand_misses::.cpu1.data       723115                       # number of demand (read+write) misses
system.cpu1.dcache.demand_misses::total        723115                       # number of demand (read+write) misses
system.cpu1.dcache.overall_misses::.cpu1.data       723115                       # number of overall misses
system.cpu1.dcache.overall_misses::total       723115                       # number of overall misses
system.cpu1.dcache.demand_miss_latency::.cpu1.data  20512169500                       # number of demand (read+write) miss cycles
system.cpu1.dcache.demand_miss_latency::total  20512169500                       # number of demand (read+write) miss cycles
system.cpu1.dcache.overall_miss_latency::.cpu1.data  20512169500                       # number of overall miss cycles
system.cpu1.dcache.overall_miss_latency::total  20512169500                       # number of overall miss cycles
system.cpu1.dcache.demand_accesses::.cpu1.data      4124249                       # number of demand (read+write) accesses
system.cpu1.dcache.demand_accesses::total      4124249                       # number of demand (read+write) accesses
system.cpu1.dcache.overall_accesses::.cpu1.data      4124249                       # number of overall (read+write) accesses
system.cpu1.dcache.overall_accesses::total      4124249                       # number of overall (read+write) accesses
system.cpu1.dcache.demand_miss_rate::.cpu1.data     0.175333                       # miss rate for demand accesses
system.cpu1.dcache.demand_miss_rate::total     0.175333                       # miss rate for demand accesses
system.cpu1.dcache.overall_miss_rate::.cpu1.data     0.175333                       # miss rate for overall accesses
system.cpu1.dcache.overall_miss_rate::total     0.175333                       # miss rate for overall accesses
system.cpu1.dcache.demand_avg_miss_latency::.cpu1.data 28366.400227                       # average overall miss latency
system.cpu1.dcache.demand_avg_miss_latency::total 28366.400227                       # average overall miss latency
system.cpu1.dcache.overall_avg_miss_latency::.cpu1.data 28366.400227                       # average overall miss latency
system.cpu1.dcache.overall_avg_miss_latency::total 28366.400227                       # average overall miss latency
system.cpu1.dcache.blocked_cycles::no_mshrs            0                       # number of cycles access was blocked
system.cpu1.dcache.blocked_cycles::no_targets            0                       # number of cycles access was blocked
system.cpu1.dcache.blocked::no_mshrs                0                       # number of cycles access was blocked
system.cpu1.dcache.blocked::no_targets              0                       # number of cycles access was blocked
system.cpu1.dcache.avg_blocked_cycles::no_mshrs          nan                       # average number of cycles each access was blocked
system.cpu1.dcache.avg_blocked_cycles::no_targets          nan                       # average number of cycles each access was blocked
system.cpu1.dcache.writebacks::.writebacks       391970                       # number of writebacks
system.cpu1.dcache.writebacks::total           391970                       # number of writebacks
system.cpu1.dcache.demand_mshr_hits::.cpu1.data        86132                       # number of demand (read+write) MSHR hits
system.cpu1.dcache.demand_mshr_hits::total        86132                       # number of demand (read+write) MSHR hits
system.cpu1.dcache.overall_mshr_hits::.cpu1.data        86132                       # number of overall MSHR hits
system.cpu1.dcache.overall_mshr_hits::total        86132                       # number of overall MSHR hits
system.cpu1.dcache.demand_mshr_misses::.cpu1.data       636983                       # number of demand (read+write) MSHR misses
system.cpu1.dcache.demand_mshr_misses::total       636983                       # number of demand (read+write) MSHR misses
system.cpu1.dcache.overall_mshr_misses::.cpu1.data       636983                       # number of overall MSHR misses
system.cpu1.dcache.overall_mshr_misses::total       636983                       # number of overall MSHR misses
system.cpu1.dcache.demand_mshr_miss_latency::.cpu1.data  16794200500                       # number of demand (read+write) MSHR miss cycles
system.cpu1.dcache.demand_mshr_miss_latency::total  16794200500                       # number of demand (read+write) MSHR miss cycles
system.cpu1.dcache.overall_mshr_miss_latency::.cpu1.data  16794200500                       # number of overall MSHR miss cycles
system.cpu1.dcache.overall_mshr_miss_latency::total  16794200500                       # number of overall MSHR miss cycles
system.cpu1.dcache.demand_mshr_miss_rate::.cpu1.data     0.154448                       # mshr miss rate for demand accesses
system.cpu1.dcache.demand_mshr_miss_rate::total     0.154448                       # mshr miss rate for demand accesses
system.cpu1.dcache.overall_mshr_miss_rate::.cpu1.data     0.154448                       # mshr miss rate for overall accesses
system.cpu1.dcache.overall_mshr_miss_rate::total     0.154448                       # mshr miss rate for overall accesses
system.cpu1.dcache.demand_avg_mshr_miss_latency::.cpu1.data 26365.225603                       # average overall mshr miss latency
system.cpu1.dcache.demand_avg_mshr_miss_latency::total 26365.225603                       # average overall mshr miss latency
system.cpu1.dcache.overall_avg_mshr_miss_latency::.cpu1.data 26365.225603                       # average overall mshr miss latency
system.cpu1.dcache.overall_avg_mshr_miss_latency::total 26365.225603                       # average overall mshr miss latency
system.cpu1.dcache.replacements                636967                       # number of replacements
system.cpu1.dcache.ReadReq_hits::.cpu1.data      1963438                       # number of ReadReq hits
system.cpu1.dcache.ReadReq_hits::total        1963438                       # number of ReadReq hits
system.cpu1.dcache.ReadReq_misses::.cpu1.data       466426                       # number of ReadReq misses
system.cpu1.dcache.ReadReq_misses::total       466426                       # number of ReadReq misses
system.cpu1.dcache.ReadReq_miss_latency::.cpu1.data  12178082500                       # number of ReadReq miss cycles
system.cpu1.dcache.ReadReq_miss_latency::total  12178082500                       # number of ReadReq miss cycles
system.cpu1.dcache.ReadReq_accesses::.cpu1.data      2429864                       # number of ReadReq accesses(hits+misses)
system.cpu1.dcache.ReadReq_accesses::total      2429864                       # number of ReadReq accesses(hits+misses)
system.cpu1.dcache.ReadReq_miss_rate::.cpu1.data     0.191956                       # miss rate for ReadReq accesses
system.cpu1.dcache.ReadReq_miss_rate::total     0.191956                       # miss rate for ReadReq accesses
system.cpu1.dcache.ReadReq_avg_miss_latency::.cpu1.data 26109.356039                       # average ReadReq miss latency
system.cpu1.dcache.ReadReq_avg_miss_latency::total 26109.356039                       # average ReadReq miss latency
system.cpu1.dcache.ReadReq_mshr_hits::.cpu1.data        18097                       # number of ReadReq MSHR hits
system.cpu1.dcache.ReadReq_mshr_hits::total        18097                       # number of ReadReq MSHR hits
system.cpu1.dcache.ReadReq_mshr_misses::.cpu1.data       448329                       # number of ReadReq MSHR misses
system.cpu1.dcache.ReadReq_mshr_misses::total       448329                       # number of ReadReq MSHR misses
system.cpu1.dcache.ReadReq_mshr_miss_latency::.cpu1.data  11325987500                       # number of ReadReq MSHR miss cycles
system.cpu1.dcache.ReadReq_mshr_miss_latency::total  11325987500                       # number of ReadReq MSHR miss cycles
system.cpu1.dcache.ReadReq_mshr_miss_rate::.cpu1.data     0.184508                       # mshr miss rate for ReadReq accesses
system.cpu1.dcache.ReadReq_mshr_miss_rate::total     0.184508                       # mshr miss rate for ReadReq accesses
system.cpu1.dcache.ReadReq_avg_mshr_miss_latency::.cpu1.data 25262.669825                       # average ReadReq mshr miss latency
system.cpu1.dcache.ReadReq_avg_mshr_miss_latency::total 25262.669825                       # average ReadReq mshr miss latency
system.cpu1.dcache.WriteReq_hits::.cpu1.data      1437696                       # number of WriteReq hits
system.cpu1.dcache.WriteReq_hits::total       1437696                       # number of WriteReq hits
system.cpu1.dcache.WriteReq_misses::.cpu1.data       256689                       # number of WriteReq misses
system.cpu1.dcache.WriteReq_misses::total       256689                       # number of WriteReq misses
system.cpu1.dcache.WriteReq_miss_latency::.cpu1.data   8334087000                       # number of WriteReq miss cycles
system.cpu1.dcache.WriteReq_miss_latency::total   8334087000                       # number of WriteReq miss cycles
system.cpu1.dcache.WriteReq_accesses::.cpu1.data      1694385                       # number of WriteReq accesses(hits+misses)
system.cpu1.dcache.WriteReq_accesses::total      1694385                       # number of WriteReq accesses(hits+misses)
[...]
system.mem_ctrls.bytesPerActivate::128-255        70297     22.58%     58.15% # Bytes accessed per row activation
system.mem_ctrls.bytesPerActivate::256-383        26126      8.39%     66.54% # Bytes accessed per row activation
system.mem_ctrls.bytesPerActivate::384-511        13587      4.36%     70.90% # Bytes accessed per row activation
system.mem_ctrls.bytesPerActivate::512-639        10373      3.33%     74.24% # Bytes accessed per row activation
system.mem_ctrls.bytesPerActivate::640-767         8753      2.81%     77.05% # Bytes accessed per row activation
system.mem_ctrls.bytesPerActivate::768-895         8516      2.74%     79.78% # Bytes accessed per row activation
system.mem_ctrls.bytesPerActivate::896-1023         8064      2.59%     82.37% # Bytes accessed per row activation
system.mem_ctrls.bytesPerActivate::1024-1151        54879     17.63%    100.00% # Bytes accessed per row activation
system.mem_ctrls.bytesPerActivate::total       311339                       # Bytes accessed per row activation
system.mem_ctrls.rdPerTurnAround::samples        42754                       # Reads before turning the bus around for writes
system.mem_ctrls.rdPerTurnAround::mean      25.131380                       # Reads before turning the bus around for writes
system.mem_ctrls.rdPerTurnAround::gmean     24.634329                       # Reads before turning the bus around for writes
system.mem_ctrls.rdPerTurnAround::stdev      7.717831                       # Reads before turning the bus around for writes
system.mem_ctrls.rdPerTurnAround::0-31          42190     98.68%     98.68% # Reads before turning the bus around for writes
system.mem_ctrls.rdPerTurnAround::32-63           443      1.04%     99.72% # Reads before turning the bus around for writes
system.mem_ctrls.rdPerTurnAround::64-95            75      0.18%     99.89% # Reads before turning the bus around for writes
system.mem_ctrls.rdPerTurnAround::96-127           14      0.03%     99.93% # Reads before turning the bus around for writes
system.mem_ctrls.rdPerTurnAround::128-159           10      0.02%     99.95% # Reads before turning the bus around for writes
system.mem_ctrls.rdPerTurnAround::160-191            6      0.01%     99.96% # Reads before turning the bus around for writes
system.mem_ctrls.rdPerTurnAround::192-223            6      0.01%     99.98% # Reads before turning the bus around for writes
system.mem_ctrls.rdPerTurnAround::224-255            5      0.01%     99.99% # Reads before turning the bus around for writes
system.mem_ctrls.rdPerTurnAround::288-319            2      0.00%     99.99% # Reads before turning the bus around for writes
system.mem_ctrls.rdPerTurnAround::320-351            1      0.00%    100.00% # Reads before turning the bus around for writes
system.mem_ctrls.rdPerTurnAround::352-383            1      0.00%    100.00% # Reads before turning the bus around for writes
system.mem_ctrls.rdPerTurnAround::672-703            1      0.00%    100.00% # Reads before turning the bus around for writes
system.mem_ctrls.rdPerTurnAround::total         42754                       # Reads before turning the bus around for writes
system.mem_ctrls.wrPerTurnAround::samples        42754                       # Writes before turning the bus around for reads
system.mem_ctrls.wrPerTurnAround::mean      16.042405                       # Writes before turning the bus around for reads
system.mem_ctrls.wrPerTurnAround::gmean     16.039051                       # Writes before turning the bus around for reads
system.mem_ctrls.wrPerTurnAround::stdev      0.347077                       # Writes before turning the bus around for reads
system.mem_ctrls.wrPerTurnAround::16            42079     98.42%     98.42% # Writes before turning the bus around for reads
system.mem_ctrls.wrPerTurnAround::17               67      0.16%     98.58% # Writes before turning the bus around for reads
system.mem_ctrls.wrPerTurnAround::18              116      0.27%     98.85% # Writes before turning the bus around for reads
system.mem_ctrls.wrPerTurnAround::19              455      1.06%     99.91% # Writes before turning the bus around for reads
system.mem_ctrls.wrPerTurnAround::20               36      0.08%    100.00% # Writes before turning the bus around for reads
system.mem_ctrls.wrPerTurnAround::21                1      0.00%    100.00% # Writes before turning the bus around for reads
system.mem_ctrls.wrPerTurnAround::total         42754                       # Writes before turning the bus around for reads
system.mem_ctrls.bytesReadDRAM               68766016                       # Total number of bytes read from DRAM
system.mem_ctrls.bytesReadWrQ                  303424                       # Total number of bytes read from write queue
system.mem_ctrls.bytesWritten                43896128                       # Total number of bytes written to DRAM
system.mem_ctrls.bytesReadSys                69069440                       # Total read bytes from the system interface side
system.mem_ctrls.bytesWrittenSys             43913024                       # Total written bytes from the system interface side
system.mem_ctrls.avgRdBW                      1141.22                       # Average DRAM read bandwidth in MiByte/s
system.mem_ctrls.avgWrBW                       728.49                       # Average achieved write bandwidth in MiByte/s
system.mem_ctrls.avgRdBWSys                   1146.25                       # Average system read bandwidth in MiByte/s
system.mem_ctrls.avgWrBWSys                    728.77                       # Average system write bandwidth in MiByte/s
system.mem_ctrls.peakBW                      12800.00                       # Theoretical peak bandwidth in MiByte/s
system.mem_ctrls.busUtil                        14.61                       # Data bus utilization in percentage
system.mem_ctrls.busUtilRead                     8.92                       # Data bus utilization in percentage for reads
system.mem_ctrls.busUtilWrite                    5.69                       # Data bus utilization in percentage for writes
system.mem_ctrls.totGap                   60256638000                       # Total gap between requests
system.mem_ctrls.avgGap                      34132.95                       # Average gap between requests
system.mem_ctrls.masterReadBytes::.cpu0.inst        98880                       # Per-master bytes read from memory
system.mem_ctrls.masterReadBytes::.cpu0.data     41022528                       # Per-master bytes read from memory
system.mem_ctrls.masterReadBytes::.cpu1.inst     20929024                       # Per-master bytes read from memory
system.mem_ctrls.masterReadBytes::.cpu1.data      6715584                       # Per-master bytes read from memory
system.mem_ctrls.masterWriteBytes::.writebacks     43896128                       # Per-master bytes write to memory
system.mem_ctrls.masterReadRate::.cpu0.inst 1640980.636951247929                       # Per-master bytes read from memory rate (Bytes/sec)
system.mem_ctrls.masterReadRate::.cpu0.data 680796663.903624534607                       # Per-master bytes read from memory rate (Bytes/sec)
system.mem_ctrls.masterReadRate::.cpu1.inst 347331342.377507627010                       # Per-master bytes read from memory rate (Bytes/sec)
system.mem_ctrls.masterReadRate::.cpu1.data 111449669.395424842834                       # Per-master bytes read from memory rate (Bytes/sec)
system.mem_ctrls.masterWriteRate::.writebacks 728486004.097223997116                       # Per-master bytes write to memory rate (Bytes/sec)
system.mem_ctrls.masterReadAccesses::.cpu0.inst         1545                       # Per-master read serviced memory accesses
system.mem_ctrls.masterReadAccesses::.cpu0.data       640986                       # Per-master read serviced memory accesses
system.mem_ctrls.masterReadAccesses::.cpu1.inst       327016                       # Per-master read serviced memory accesses
system.mem_ctrls.masterReadAccesses::.cpu1.data       109663                       # Per-master read serviced memory accesses
system.mem_ctrls.masterWriteAccesses::.writebacks       686141                       # Per-master write serviced memory accesses
system.mem_ctrls.masterReadTotalLat::.cpu0.inst     47672500                       # Per-master read total memory access latency
system.mem_ctrls.masterReadTotalLat::.cpu0.data  19265541250                       # Per-master read total memory access latency
system.mem_ctrls.masterReadTotalLat::.cpu1.inst  10723562500                       # Per-master read total memory access latency
system.mem_ctrls.masterReadTotalLat::.cpu1.data   4426533500                       # Per-master read total memory access latency
system.mem_ctrls.masterWriteTotalLat::.writebacks 1497585087500                       # Per-master write total memory access latency
system.mem_ctrls.masterReadAvgLat::.cpu0.inst     30855.99                       # Per-master read average memory access latency
system.mem_ctrls.masterReadAvgLat::.cpu0.data     30056.10                       # Per-master read average memory access latency
system.mem_ctrls.masterReadAvgLat::.cpu1.inst     32792.16                       # Per-master read average memory access latency
system.mem_ctrls.masterReadAvgLat::.cpu1.data     40364.88                       # Per-master read average memory access latency
system.mem_ctrls.masterWriteAvgLat::.writebacks   2182620.03                       # Per-master write average memory access latency
system.mem_ctrls.pageHitRate                    82.31                       # Row buffer hit rate, read and write combined
system.mem_ctrls.rank1.actEnergy           1202204640                       # Energy for activate commands per rank (pJ)
system.mem_ctrls.rank1.preEnergy            638964150                       # Energy for precharge commands per rank (pJ)
system.mem_ctrls.rank1.readEnergy          4287527160                       # Energy for read commands per rank (pJ)
system.mem_ctrls.rank1.writeEnergy         1808531640                       # Energy for write commands per rank (pJ)
system.mem_ctrls.rank1.refreshEnergy     4756084320.000001                       # Energy for refresh commands per rank (pJ)
system.mem_ctrls.rank1.actBackEnergy      27036954210                       # Energy for active background per rank (pJ)
system.mem_ctrls.rank1.preBackEnergy        370593120                       # Energy for precharge background per rank (pJ)
system.mem_ctrls.rank1.actPowerDownEnergy            0                       # Energy for active power-down per rank (pJ)
system.mem_ctrls.rank1.prePowerDownEnergy            0                       # Energy for precharge power-down per rank (pJ)
system.mem_ctrls.rank1.selfRefreshEnergy            0                       # Energy for self refresh per rank (pJ)
system.mem_ctrls.rank1.totalEnergy        40100859240                       # Total energy per rank (pJ)
system.mem_ctrls.rank1.averagePower        665.500946                       # Core power per rank (mW)
system.mem_ctrls.rank1.totalIdleTime                0                       # Total Idle time Per DRAM Rank
system.mem_ctrls.rank1.memoryStateTime::IDLE    713138750                       # Time in different power states
system.mem_ctrls.rank1.memoryStateTime::REF   2011880000                       # Time in different power states
system.mem_ctrls.rank1.memoryStateTime::SREF            0                       # Time in different power states
system.mem_ctrls.rank1.memoryStateTime::PRE_PDN            0                       # Time in different power states
system.mem_ctrls.rank1.memoryStateTime::ACT  57531633750                       # Time in different power states
system.mem_ctrls.rank1.memoryStateTime::ACT_PDN            0                       # Time in different power states
system.mem_ctrls.rank0.actEnergy           1020805800                       # Energy for activate commands per rank (pJ)
system.mem_ctrls.rank0.preEnergy            542567355                       # Energy for precharge commands per rank (pJ)
system.mem_ctrls.rank0.readEnergy          3384181500                       # Energy for read commands per rank (pJ)
system.mem_ctrls.rank0.writeEnergy         1771746300                       # Energy for write commands per rank (pJ)
system.mem_ctrls.rank0.refreshEnergy     4756084320.000001                       # Energy for refresh commands per rank (pJ)
system.mem_ctrls.rank0.actBackEnergy      26181126570                       # Energy for active background per rank (pJ)
system.mem_ctrls.rank0.preBackEnergy       1091290080                       # Energy for precharge background per rank (pJ)
system.mem_ctrls.rank0.actPowerDownEnergy            0                       # Energy for active power-down per rank (pJ)
system.mem_ctrls.rank0.prePowerDownEnergy            0                       # Energy for precharge power-down per rank (pJ)
system.mem_ctrls.rank0.selfRefreshEnergy            0                       # Energy for self refresh per rank (pJ)
system.mem_ctrls.rank0.totalEnergy        38747801925                       # Total energy per rank (pJ)
system.mem_ctrls.rank0.averagePower        643.046043                       # Core power per rank (mW)
system.mem_ctrls.rank0.totalIdleTime                0                       # Total Idle time Per DRAM Rank
system.mem_ctrls.rank0.memoryStateTime::IDLE   2584369000                       # Time in different power states
system.mem_ctrls.rank0.memoryStateTime::REF   2011880000                       # Time in different power states
system.mem_ctrls.rank0.memoryStateTime::SREF            0                       # Time in different power states
system.mem_ctrls.rank0.memoryStateTime::PRE_PDN            0                       # Time in different power states
system.mem_ctrls.rank0.memoryStateTime::ACT  55660403500                       # Time in different power states
system.mem_ctrls.rank0.memoryStateTime::ACT_PDN            0                       # Time in different power states
system.mem_ctrls.power_state.pwrStateResidencyTicks::UNDEFINED  60256652500                       # Cumulative time (in ticks) in various power states
system.cpu_clk_domain.clock                       500                       # Clock period in ticks
system.tol2bus.trans_dist::ReadResp           2083984                       # Transaction distribution
system.tol2bus.trans_dist::WritebackDirty      1723707                       # Transaction distribution
system.tol2bus.trans_dist::WritebackClean      1619524                       # Transaction distribution
system.tol2bus.trans_dist::CleanEvict          652009                       # Transaction distribution
system.tol2bus.trans_dist::ReadExReq           832150                       # Transaction distribution
system.tol2bus.trans_dist::ReadExResp          832149                       # Transaction distribution
system.tol2bus.trans_dist::ReadCleanReq       1619556                       # Transaction distribution
system.tol2bus.trans_dist::ReadSharedReq       464428                       # Transaction distribution
system.tol2bus.pkt_count_system.cpu0.icache.mem_side::system.l2.cpu_side        26633                       # Packet count per connected master and slave (bytes)
system.tol2bus.pkt_count_system.cpu0.dcache.mem_side::system.l2.cpu_side      1978767                       # Packet count per connected master and slave (bytes)
system.tol2bus.pkt_count_system.cpu1.icache.mem_side::system.l2.cpu_side      4832003                       # Packet count per connected master and slave (bytes)
system.tol2bus.pkt_count_system.cpu1.dcache.mem_side::system.l2.cpu_side      1910933                       # Packet count per connected master and slave (bytes)
system.tol2bus.pkt_count::total               8748336                       # Packet count per connected master and slave (bytes)
system.tol2bus.pkt_size_system.cpu0.icache.mem_side::system.l2.cpu_side      1136000                       # Cumulative packet size per connected master and slave (bytes)
system.tol2bus.pkt_size_system.cpu0.dcache.mem_side::system.l2.cpu_side     83532160                       # Cumulative packet size per connected master and slave (bytes)
system.tol2bus.pkt_size_system.cpu1.icache.mem_side::system.l2.cpu_side    206165120                       # Cumulative packet size per connected master and slave (bytes)
system.tol2bus.pkt_size_system.cpu1.dcache.mem_side::system.l2.cpu_side     65852992                       # Cumulative packet size per connected master and slave (bytes)
system.tol2bus.pkt_size::total              356686272                       # Cumulative packet size per connected master and slave (bytes)
system.tol2bus.snoops                         1079171                       # Total snoops (count)
system.tol2bus.snoopTraffic                  43913024                       # Total snoop traffic (bytes)
system.tol2bus.snoop_fanout::samples          3995305                       # Request fanout histogram
system.tol2bus.snoop_fanout::mean            0.000398                       # Request fanout histogram
system.tol2bus.snoop_fanout::stdev           0.019958                       # Request fanout histogram
system.tol2bus.snoop_fanout::underflows             0      0.00%      0.00% # Request fanout histogram
system.tol2bus.snoop_fanout::0                3993713     99.96%     99.96% # Request fanout histogram
system.tol2bus.snoop_fanout::1                   1592      0.04%    100.00% # Request fanout histogram
system.tol2bus.snoop_fanout::2                      0      0.00%    100.00% # Request fanout histogram
system.tol2bus.snoop_fanout::3                      0      0.00%    100.00% # Request fanout histogram
system.tol2bus.snoop_fanout::4                      0      0.00%    100.00% # Request fanout histogram
system.tol2bus.snoop_fanout::5                      0      0.00%    100.00% # Request fanout histogram
system.tol2bus.snoop_fanout::6                      0      0.00%    100.00% # Request fanout histogram
system.tol2bus.snoop_fanout::7                      0      0.00%    100.00% # Request fanout histogram
system.tol2bus.snoop_fanout::8                      0      0.00%    100.00% # Request fanout histogram
system.tol2bus.snoop_fanout::overflows              0      0.00%    100.00% # Request fanout histogram
system.tol2bus.snoop_fanout::min_value              0                       # Request fanout histogram
system.tol2bus.snoop_fanout::max_value              1                       # Request fanout histogram
system.tol2bus.snoop_fanout::total            3995305                       # Request fanout histogram
system.tol2bus.reqLayer0.occupancy         5573191500                       # Layer occupancy (ticks)
system.tol2bus.reqLayer0.utilization              9.2                       # Layer utilization (%)
system.tol2bus.respLayer5.occupancy         955679090                       # Layer occupancy (ticks)
system.tol2bus.respLayer5.utilization             1.6                       # Layer utilization (%)
system.tol2bus.respLayer4.occupancy        2416063891                       # Layer occupancy (ticks)
system.tol2bus.respLayer4.utilization             4.0                       # Layer utilization (%)
system.tol2bus.respLayer1.occupancy         994255252                       # Layer occupancy (ticks)
system.tol2bus.respLayer1.utilization             1.7                       # Layer utilization (%)
system.tol2bus.respLayer0.occupancy          13338971                       # Layer occupancy (ticks)
system.tol2bus.respLayer0.utilization             0.0                       # Layer utilization (%)
system.tol2bus.power_state.pwrStateResidencyTicks::UNDEFINED  60256652500                       # Cumulative time (in ticks) in various power states

---------- End Simulation Statistics   ----------
