
---------- Begin Simulation Statistics ----------
final_tick                                13986552500                       # Number of ticks from beginning of simulation (restored from checkpoints and never reset)
host_inst_rate                                 241127                       # Simulator instruction rate (inst/s)
host_mem_usage                                4425448                       # Number of bytes of host memory used
host_op_rate                                   420682                       # Simulator op (including micro ops) rate (op/s)
host_seconds                                    56.18                       # Real time elapsed on the host
host_tick_rate                              248971211                       # Simulator tick rate (ticks/s)
sim_freq                                 1000000000000                       # Frequency of simulated ticks
sim_insts                                    13545893                       # Number of instructions simulated
sim_ops                                      23632787                       # Number of ops (including micro ops) simulated
sim_seconds                                  0.013987                       # Number of seconds simulated
sim_ticks                                 13986552500                       # Number of ticks simulated
system.cpu0.branchPred.BTBCorrect                   0                       # Number of correct BTB predictions (this stat may not work properly.
system.cpu0.branchPred.BTBHitPct                  nan                       # BTB Hit Percentage
system.cpu0.branchPred.BTBHits                      0                       # Number of BTB hits
system.cpu0.branchPred.BTBLookups                   0                       # Number of BTB lookups
system.cpu0.branchPred.RASInCorrect                 0                       # Number of incorrect RAS predictions.
system.cpu0.branchPred.condIncorrect               35                       # Number of conditional branches incorrect
system.cpu0.branchPred.condPredicted               76                       # Number of conditional branches predicted
system.cpu0.branchPred.indirectHits                 0                       # Number of indirect target hits.
system.cpu0.branchPred.indirectLookups             24                       # Number of indirect predictor lookups.
system.cpu0.branchPred.indirectMisses              24                       # Number of indirect misses.
system.cpu0.branchPred.lookups                     76                       # Number of BP lookups
system.cpu0.branchPred.usedRAS                      0                       # Number of times the RAS was used to get a target.
system.cpu0.branchPredindirectMispredicted           15                       # Number of mispredicted indirect branches.
system.cpu0.committedInsts                    3545893                       # Number of instructions committed
system.cpu0.committedOps                      6704856                       # Number of ops (including micro ops) committed
system.cpu0.cpi                              7.888875                       # CPI: cycles per instruction
system.cpu0.discardedOps                      1252754                       # Number of ops (including micro ops) which were discarded before commit
system.cpu0.dtb.rdAccesses                     900719                       # TLB accesses on read requests
system.cpu0.dtb.rdMisses                        12855                       # TLB misses on read requests
system.cpu0.dtb.wrAccesses                     647718                       # TLB accesses on write requests
system.cpu0.dtb.wrMisses                          471                       # TLB misses on write requests
system.cpu0.fetch2.amo_instructions                 0                       # Number of memory atomic instructions successfully decoded
system.cpu0.fetch2.fp_instructions                  0                       # Number of floating point instructions successfully decoded
system.cpu0.fetch2.int_instructions                 8                       # Number of integer instructions successfully decoded
system.cpu0.fetch2.load_instructions                0                       # Number of memory load instructions successfully decoded
system.cpu0.fetch2.store_instructions               0                       # Number of memory store instructions successfully decoded
system.cpu0.fetch2.vec_instructions                 0                       # Number of SIMD instructions successfully decoded
system.cpu0.idleCycles                       16379265                       # Total number of cycles that the object has spent stopped
system.cpu0.ipc                              0.126761                       # IPC: instructions per cycle
system.cpu0.itb.rdAccesses                          0                       # TLB accesses on read requests
system.cpu0.itb.rdMisses                            0                       # TLB misses on read requests
system.cpu0.itb.wrAccesses                    1198932                       # TLB accesses on write requests
system.cpu0.itb.wrMisses                          190                       # TLB misses on write requests
system.cpu0.numCycles                        27973105                       # number of cpu cycles simulated
system.cpu0.numFetchSuspends                        0                       # Number of times Execute suspended instruction fetching
system.cpu0.numWorkItemsCompleted                   0                       # number of work items this cpu completed
system.cpu0.numWorkItemsStarted                     0                       # number of work items this cpu started
system.cpu0.op_class_0::No_OpClass              14907      0.22%      0.22% # Class of committed instruction
system.cpu0.op_class_0::IntAlu                5251808     78.33%     78.55% # Class of committed instruction
system.cpu0.op_class_0::IntMult                 13026      0.19%     78.75% # Class of committed instruction
system.cpu0.op_class_0::IntDiv                   1365      0.02%     78.77% # Class of committed instruction
system.cpu0.op_class_0::FloatAdd                 8922      0.13%     78.90% # Class of committed instruction
system.cpu0.op_class_0::FloatCmp                    0      0.00%     78.90% # Class of committed instruction
system.cpu0.op_class_0::FloatCvt                  160      0.00%     78.90% # Class of committed instruction
system.cpu0.op_class_0::FloatMult                   0      0.00%     78.90% # Class of committed instruction
system.cpu0.op_class_0::FloatMultAcc                0      0.00%     78.90% # Class of committed instruction
system.cpu0.op_class_0::FloatDiv                    0      0.00%     78.90% # Class of committed instruction
system.cpu0.op_class_0::FloatMisc                   0      0.00%     78.90% # Class of committed instruction
system.cpu0.op_class_0::FloatSqrt                   0      0.00%     78.90% # Class of committed instruction
system.cpu0.op_class_0::SimdAdd                   946      0.01%     78.91% # Class of committed instruction
system.cpu0.op_class_0::SimdAddAcc                  0      0.00%     78.91% # Class of committed instruction
system.cpu0.op_class_0::SimdAlu                  1027      0.02%     78.93% # Class of committed instruction
system.cpu0.op_class_0::SimdCmp                    12      0.00%     78.93% # Class of committed instruction
system.cpu0.op_class_0::SimdCvt                 10552      0.16%     79.09% # Class of committed instruction
system.cpu0.op_class_0::SimdMisc                40484      0.60%     79.69% # Class of committed instruction
system.cpu0.op_class_0::SimdMult                    0      0.00%     79.69% # Class of committed instruction
system.cpu0.op_class_0::SimdMultAcc                 0      0.00%     79.69% # Class of committed instruction
system.cpu0.op_class_0::SimdShift                 446      0.01%     79.70% # Class of committed instruction
system.cpu0.op_class_0::SimdShiftAcc                0      0.00%     79.70% # Class of committed instruction
system.cpu0.op_class_0::SimdDiv                     0      0.00%     79.70% # Class of committed instruction
system.cpu0.op_class_0::SimdSqrt                    0      0.00%     79.70% # Class of committed instruction
system.cpu0.op_class_0::SimdFloatAdd                0      0.00%     79.70% # Class of committed instruction
system.cpu0.op_class_0::SimdFloatAlu                0      0.00%     79.70% # Class of committed instruction
system.cpu0.op_class_0::SimdFloatCmp                0      0.00%     79.70% # Class of committed instruction
system.cpu0.op_class_0::SimdFloatCvt                0      0.00%     79.70% # Class of committed instruction
system.cpu0.op_class_0::SimdFloatDiv                0      0.00%     79.70% # Class of committed instruction
system.cpu0.op_class_0::SimdFloatMisc               0      0.00%     79.70% # Class of committed instruction
system.cpu0.op_class_0::SimdFloatMult               0      0.00%     79.70% # Class of committed instruction
system.cpu0.op_class_0::SimdFloatMultAcc            0      0.00%     79.70% # Class of committed instruction
system.cpu0.op_class_0::SimdFloatSqrt               0      0.00%     79.70% # Class of committed instruction
system.cpu0.op_class_0::SimdReduceAdd               0      0.00%     79.70% # Class of committed instruction
system.cpu0.op_class_0::SimdReduceAlu               0      0.00%     79.70% # Class of committed instruction
system.cpu0.op_class_0::SimdReduceCmp               0      0.00%     79.70% # Class of committed instruction
system.cpu0.op_class_0::SimdFloatReduceAdd            0      0.00%     79.70% # Class of committed instruction
system.cpu0.op_class_0::SimdFloatReduceCmp            0      0.00%     79.70% # Class of committed instruction
system.cpu0.op_class_0::SimdAes                     0      0.00%     79.70% # Class of committed instruction
system.cpu0.op_class_0::SimdAesMix                  0      0.00%     79.70% # Class of committed instruction
system.cpu0.op_class_0::SimdSha1Hash                0      0.00%     79.70% # Class of committed instruction
system.cpu0.op_class_0::SimdSha1Hash2               0      0.00%     79.70% # Class of committed instruction
system.cpu0.op_class_0::SimdSha256Hash              0      0.00%     79.70% # Class of committed instruction
system.cpu0.op_class_0::SimdSha256Hash2             0      0.00%     79.70% # Class of committed instruction
system.cpu0.op_class_0::SimdShaSigma2               0      0.00%     79.70% # Class of committed instruction
system.cpu0.op_class_0::SimdShaSigma3               0      0.00%     79.70% # Class of committed instruction
system.cpu0.op_class_0::SimdPredAlu                 0      0.00%     79.70% # Class of committed instruction
system.cpu0.op_class_0::MemRead                735480     10.97%     90.67% # Class of committed instruction
system.cpu0.op_class_0::MemWrite               587237      8.76%     99.43% # Class of committed instruction
system.cpu0.op_class_0::FloatMemRead            24134      0.36%     99.79% # Class of committed instruction
system.cpu0.op_class_0::FloatMemWrite           14350      0.21%    100.00% # Class of committed instruction
system.cpu0.op_class_0::IprAccess                   0      0.00%    100.00% # Class of committed instruction
system.cpu0.op_class_0::InstPrefetch                0      0.00%    100.00% # Class of committed instruction
system.cpu0.op_class_0::total                 6704856                       # Class of committed instruction
system.cpu0.tickCycles                       11593840                       # Number of cycles that the object actually ticked
system.cpu0.workload.numSyscalls                   35                       # Number of system calls
system.cpu1.branchPred.BTBCorrect                   0                       # Number of correct BTB predictions (this stat may not work properly.
system.cpu1.branchPred.BTBHitPct                  nan                       # BTB Hit Percentage
system.cpu1.branchPred.BTBHits                      0                       # Number of BTB hits
system.cpu1.branchPred.BTBLookups                   0                       # Number of BTB lookups
system.cpu1.branchPred.RASInCorrect                 0                       # Number of incorrect RAS predictions.
system.cpu1.branchPred.condIncorrect               43                       # Number of conditional branches incorrect
system.cpu1.branchPred.condPredicted               89                       # Number of conditional branches predicted
system.cpu1.branchPred.indirectHits                 0                       # Number of indirect target hits.
system.cpu1.branchPred.indirectLookups             25                       # Number of indirect predictor lookups.
system.cpu1.branchPred.indirectMisses              25                       # Number of indirect misses.
system.cpu1.branchPred.lookups                     89                       # Number of BP lookups
system.cpu1.branchPred.usedRAS                      0                       # Number of times the RAS was used to get a target.
system.cpu1.branchPredindirectMispredicted           17                       # Number of mispredicted indirect branches.
system.cpu1.committedInsts                   10000000                       # Number of instructions committed
system.cpu1.committedOps                     16927931                       # Number of ops (including micro ops) committed
system.cpu1.cpi                              2.797311                       # CPI: cycles per instruction
system.cpu1.discardedOps                      2872177                       # Number of ops (including micro ops) which were discarded before commit
system.cpu1.dtb.rdAccesses                    4157454                       # TLB accesses on read requests
system.cpu1.dtb.rdMisses                         2393                       # TLB misses on read requests
system.cpu1.dtb.wrAccesses                    2003177                       # TLB accesses on write requests
system.cpu1.dtb.wrMisses                         1711                       # TLB misses on write requests
system.cpu1.fetch2.amo_instructions                 0                       # Number of memory atomic instructions successfully decoded
system.cpu1.fetch2.fp_instructions                  0                       # Number of floating point instructions successfully decoded
system.cpu1.fetch2.int_instructions                 8                       # Number of integer instructions successfully decoded
system.cpu1.fetch2.load_instructions                0                       # Number of memory load instructions successfully decoded
system.cpu1.fetch2.store_instructions               0                       # Number of memory store instructions successfully decoded
system.cpu1.fetch2.vec_instructions                 0                       # Number of SIMD instructions successfully decoded
system.cpu1.idleCycles                        5045148                       # Total number of cycles that the object has spent stopped
system.cpu1.ipc                              0.357486                       # IPC: instructions per cycle
system.cpu1.itb.rdAccesses                          0                       # TLB accesses on read requests
system.cpu1.itb.rdMisses                            0                       # TLB misses on read requests
system.cpu1.itb.wrAccesses                    2443243                       # TLB accesses on write requests
system.cpu1.itb.wrMisses                          180                       # TLB misses on write requests
system.cpu1.numCycles                        27973105                       # number of cpu cycles simulated
system.cpu1.numFetchSuspends                        0                       # Number of times Execute suspended instruction fetching
system.cpu1.numWorkItemsCompleted                   0                       # number of work items this cpu completed
system.cpu1.numWorkItemsStarted                     0                       # number of work items this cpu started
system.cpu1.op_class_0::No_OpClass              31838      0.19%      0.19% # Class of committed instruction
system.cpu1.op_class_0::IntAlu               11081465     65.46%     65.65% # Class of committed instruction
system.cpu1.op_class_0::IntMult                    77      0.00%     65.65% # Class of committed instruction
system.cpu1.op_class_0::IntDiv                   1369      0.01%     65.66% # Class of committed instruction
system.cpu1.op_class_0::FloatAdd                  223      0.00%     65.66% # Class of committed instruction
system.cpu1.op_class_0::FloatCmp                    0      0.00%     65.66% # Class of committed instruction
system.cpu1.op_class_0::FloatCvt                  176      0.00%     65.66% # Class of committed instruction
system.cpu1.op_class_0::FloatMult                   0      0.00%     65.66% # Class of committed instruction
system.cpu1.op_class_0::FloatMultAcc                0      0.00%     65.66% # Class of committed instruction
system.cpu1.op_class_0::FloatDiv                    0      0.00%     65.66% # Class of committed instruction
system.cpu1.op_class_0::FloatMisc                   0      0.00%     65.66% # Class of committed instruction
system.cpu1.op_class_0::FloatSqrt                   0      0.00%     65.66% # Class of committed instruction
system.cpu1.op_class_0::SimdAdd                   952      0.01%     65.67% # Class of committed instruction
system.cpu1.op_class_0::SimdAddAcc                  0      0.00%     65.67% # Class of committed instruction
system.cpu1.op_class_0::SimdAlu                   988      0.01%     65.67% # Class of committed instruction
system.cpu1.op_class_0::SimdCmp                     0      0.00%     65.67% # Class of committed instruction
system.cpu1.op_class_0::SimdCvt                  1344      0.01%     65.68% # Class of committed instruction
system.cpu1.op_class_0::SimdMisc                  912      0.01%     65.69% # Class of committed instruction
system.cpu1.op_class_0::SimdMult                    0      0.00%     65.69% # Class of committed instruction
system.cpu1.op_class_0::SimdMultAcc                 0      0.00%     65.69% # Class of committed instruction
system.cpu1.op_class_0::SimdShift                 333      0.00%     65.69% # Class of committed instruction
system.cpu1.op_class_0::SimdShiftAcc                0      0.00%     65.69% # Class of committed instruction
system.cpu1.op_class_0::SimdDiv                     0      0.00%     65.69% # Class of committed instruction
system.cpu1.op_class_0::SimdSqrt                    0      0.00%     65.69% # Class of committed instruction
system.cpu1.op_class_0::SimdFloatAdd                0      0.00%     65.69% # Class of committed instruction
system.cpu1.op_class_0::SimdFloatAlu                0      0.00%     65.69% # Class of committed instruction
system.cpu1.op_class_0::SimdFloatCmp                0      0.00%     65.69% # Class of committed instruction
system.cpu1.op_class_0::SimdFloatCvt                0      0.00%     65.69% # Class of committed instruction
system.cpu1.op_class_0::SimdFloatDiv                0      0.00%     65.69% # Class of committed instruction
system.cpu1.op_class_0::SimdFloatMisc               0      0.00%     65.69% # Class of committed instruction
system.cpu1.op_class_0::SimdFloatMult               0      0.00%     65.69% # Class of committed instruction
system.cpu1.op_class_0::SimdFloatMultAcc            0      0.00%     65.69% # Class of committed instruction
system.cpu1.op_class_0::SimdFloatSqrt               0      0.00%     65.69% # Class of committed instruction
system.cpu1.op_class_0::SimdReduceAdd               0      0.00%     65.69% # Class of committed instruction
system.cpu1.op_class_0::SimdReduceAlu               0      0.00%     65.69% # Class of committed instruction
system.cpu1.op_class_0::SimdReduceCmp               0      0.00%     65.69% # Class of committed instruction
system.cpu1.op_class_0::SimdFloatReduceAdd            0      0.00%     65.69% # Class of committed instruction
system.cpu1.op_class_0::SimdFloatReduceCmp            0      0.00%     65.69% # Class of committed instruction
system.cpu1.op_class_0::SimdAes                     0      0.00%     65.69% # Class of committed instruction
system.cpu1.op_class_0::SimdAesMix                  0      0.00%     65.69% # Class of committed instruction
system.cpu1.op_class_0::SimdSha1Hash                0      0.00%     65.69% # Class of committed instruction
system.cpu1.op_class_0::SimdSha1Hash2               0      0.00%     65.69% # Class of committed instruction
system.cpu1.op_class_0::SimdSha256Hash              0      0.00%     65.69% # Class of committed instruction
system.cpu1.op_class_0::SimdSha256Hash2             0      0.00%     65.69% # Class of committed instruction
system.cpu1.op_class_0::SimdShaSigma2               0      0.00%     65.69% # Class of committed instruction
system.cpu1.op_class_0::SimdShaSigma3               0      0.00%     65.69% # Class of committed instruction
system.cpu1.op_class_0::SimdPredAlu                 0      0.00%     65.69% # Class of committed instruction
system.cpu1.op_class_0::MemRead               3833806     22.65%     88.34% # Class of committed instruction
system.cpu1.op_class_0::MemWrite              1911134     11.29%     99.63% # Class of committed instruction
system.cpu1.op_class_0::FloatMemRead            31918      0.19%     99.81% # Class of committed instruction
system.cpu1.op_class_0::FloatMemWrite           31396      0.19%    100.00% # Class of committed instruction
system.cpu1.op_class_0::IprAccess                   0      0.00%    100.00% # Class of committed instruction
system.cpu1.op_class_0::InstPrefetch                0      0.00%    100.00% # Class of committed instruction
system.cpu1.op_class_0::total                16927931                       # Class of committed instruction
system.cpu1.tickCycles                       22927957                       # Number of cycles that the object actually ticked
system.cpu1.workload.numSyscalls                   43                       # Number of system calls
system.membus.snoop_filter.hit_multi_requests            0                       # Number of requests hitting in the snoop filter with multiple (>1) holders of the requested data.
system.membus.snoop_filter.hit_multi_snoops            0                       # Number of snoops hitting in the snoop filter with multiple (>1) holders of the requested data.
system.membus.snoop_filter.hit_single_requests        69565                       # Number of requests hitting in the snoop filter with a single holder of the requested data.
system.membus.snoop_filter.hit_single_snoops            0                       # Number of snoops hitting in the snoop filter with a single holder of the requested data.
system.membus.snoop_filter.tot_requests        140154                       # Total number of requests made to the snoop filter.
system.membus.snoop_filter.tot_snoops               0                       # Total number of snoops made to the snoop filter.
system.tol2bus.snoop_filter.hit_multi_requests            1                       # Number of requests hitting in the snoop filter with multiple (>1) holders of the requested data.
system.tol2bus.snoop_filter.hit_multi_snoops            0                       # Number of snoops hitting in the snoop filter with multiple (>1) holders of the requested data.
system.tol2bus.snoop_filter.hit_single_requests      1047560                       # Number of requests hitting in the snoop filter with a single holder of the requested data.
system.tol2bus.snoop_filter.hit_single_snoops          116                       # Number of snoops hitting in the snoop filter with a single holder of the requested data.
system.tol2bus.snoop_filter.tot_requests      2095184                       # Total number of requests made to the snoop filter.
system.tol2bus.snoop_filter.tot_snoops            116                       # Total number of snoops made to the snoop filter.
system.membus.trans_dist::ReadResp              48077                       # Transaction distribution
system.membus.trans_dist::WritebackDirty        24081                       # Transaction distribution
system.membus.trans_dist::CleanEvict            45484                       # Transaction distribution
system.membus.trans_dist::ReadExReq             22512                       # Transaction distribution
system.membus.trans_dist::ReadExResp            22512                       # Transaction distribution
system.membus.trans_dist::ReadSharedReq         48077                       # Transaction distribution
system.membus.pkt_count_system.l2.mem_side::system.mem_ctrls.port       210743                       # Packet count per connected master and slave (bytes)
system.membus.pkt_count_system.l2.mem_side::total       210743                       # Packet count per connected master and slave (bytes)
system.membus.pkt_count::total                 210743                       # Packet count per connected master and slave (bytes)
system.membus.pkt_size_system.l2.mem_side::system.mem_ctrls.port      6058880                       # Cumulative packet size per connected master and slave (bytes)
system.membus.pkt_size_system.l2.mem_side::total      6058880                       # Cumulative packet size per connected master and slave (bytes)
system.membus.pkt_size::total                 6058880                       # Cumulative packet size per connected master and slave (bytes)
system.membus.snoops                                0                       # Total snoops (count)
system.membus.snoopTraffic                          0                       # Total snoop traffic (bytes)
system.membus.snoop_fanout::samples             70589                       # Request fanout histogram
system.membus.snoop_fanout::mean                    0                       # Request fanout histogram
system.membus.snoop_fanout::stdev                   0                       # Request fanout histogram
system.membus.snoop_fanout::underflows              0      0.00%      0.00% # Request fanout histogram
system.membus.snoop_fanout::0                   70589    100.00%    100.00% # Request fanout histogram
system.membus.snoop_fanout::1                       0      0.00%    100.00% # Request fanout histogram
system.membus.snoop_fanout::overflows               0      0.00%    100.00% # Request fanout histogram
system.membus.snoop_fanout::min_value               0                       # Request fanout histogram
system.membus.snoop_fanout::max_value               0                       # Request fanout histogram
system.membus.snoop_fanout::total               70589                       # Request fanout histogram
system.membus.reqLayer4.occupancy           252500500                       # Layer occupancy (ticks)
system.membus.reqLayer4.utilization               1.8                       # Layer utilization (%)
system.membus.respLayer1.occupancy          376078500                       # Layer occupancy (ticks)
system.membus.respLayer1.utilization              2.7                       # Layer utilization (%)
system.membus.power_state.pwrStateResidencyTicks::UNDEFINED  13986552500                       # Cumulative time (in ticks) in various power states
system.voltage_domain.voltage                       1                       # Voltage in Volts
system.clk_domain.clock                          1000                       # Clock period in ticks
system.cpu0.icache.demand_hits::.cpu0.inst       617285                       # number of demand (read+write) hits
system.cpu0.icache.demand_hits::total          617285                       # number of demand (read+write) hits
system.cpu0.icache.overall_hits::.cpu0.inst       617285                       # number of overall hits
system.cpu0.icache.overall_hits::total         617285                       # number of overall hits
system.cpu0.icache.demand_misses::.cpu0.inst       581594                       # number of demand (read+write) misses
system.cpu0.icache.demand_misses::total        581594                       # number of demand (read+write) misses
system.cpu0.icache.overall_misses::.cpu0.inst       581594                       # number of overall misses
system.cpu0.icache.overall_misses::total       581594                       # number of overall misses
system.cpu0.icache.demand_miss_latency::.cpu0.inst   9444525500                       # number of demand (read+write) miss cycles
system.cpu0.icache.demand_miss_latency::total   9444525500                       # number of demand (read+write) miss cycles
system.cpu0.icache.overall_miss_latency::.cpu0.inst   9444525500                       # number of overall miss cycles
system.cpu0.icache.overall_miss_latency::total   9444525500                       # number of overall miss cycles
system.cpu0.icache.demand_accesses::.cpu0.inst      1198879                       # number of demand (read+write) accesses
system.cpu0.icache.demand_accesses::total      1198879                       # number of demand (read+write) accesses
system.cpu0.icache.overall_accesses::.cpu0.inst      1198879                       # number of overall (read+write) accesses
system.cpu0.icache.overall_accesses::total      1198879                       # number of overall (read+write) accesses
system.cpu0.icache.demand_miss_rate::.cpu0.inst     0.485115                       # miss rate for demand accesses
system.cpu0.icache.demand_miss_rate::total     0.485115                       # miss rate for demand accesses
system.cpu0.icache.overall_miss_rate::.cpu0.inst     0.485115                       # miss rate for overall accesses
system.cpu0.icache.overall_miss_rate::total     0.485115                       # miss rate for overall accesses
system.cpu0.icache.demand_avg_miss_latency::.cpu0.inst 16239.035306                       # average overall miss latency
system.cpu0.icache.demand_avg_miss_latency::total 16239.035306                       # average overall miss latency
system.cpu0.icache.overall_avg_miss_latency::.cpu0.inst 16239.035306                       # average overall miss latency
system.cpu0.icache.overall_avg_miss_latency::total 16239.035306                       # average overall miss latency
system.cpu0.icache.blocked_cycles::no_mshrs            0                       # number of cycles access was blocked
system.cpu0.icache.blocked_cycles::no_targets            0                       # number of cycles access was blocked
system.cpu0.icache.blocked::no_mshrs                0                       # number of cycles access was blocked
system.cpu0.icache.blocked::no_targets              0                       # number of cycles access was blocked
system.cpu0.icache.avg_blocked_cycles::no_mshrs          nan                       # average number of cycles each access was blocked
system.cpu0.icache.avg_blocked_cycles::no_targets          nan                       # average number of cycles each access was blocked
system.cpu0.icache.writebacks::.writebacks       581578                       # number of writebacks
system.cpu0.icache.writebacks::total           581578                       # number of writebacks
system.cpu0.icache.demand_mshr_misses::.cpu0.inst       581594                       # number of demand (read+write) MSHR misses
system.cpu0.icache.demand_mshr_misses::total       581594                       # number of demand (read+write) MSHR misses
system.cpu0.icache.overall_mshr_misses::.cpu0.inst       581594                       # number of overall MSHR misses
system.cpu0.icache.overall_mshr_misses::total       581594                       # number of overall MSHR misses
system.cpu0.icache.demand_mshr_miss_latency::.cpu0.inst   8862931500                       # number of demand (read+write) MSHR miss cycles
system.cpu0.icache.demand_mshr_miss_latency::total   8862931500                       # number of demand (read+write) MSHR miss cycles
system.cpu0.icache.overall_mshr_miss_latency::.cpu0.inst   8862931500                       # number of overall MSHR miss cycles
system.cpu0.icache.overall_mshr_miss_latency::total   8862931500                       # number of overall MSHR miss cycles
system.cpu0.icache.demand_mshr_miss_rate::.cpu0.inst     0.485115                       # mshr miss rate for demand accesses
system.cpu0.icache.demand_mshr_miss_rate::total     0.485115                       # mshr miss rate for demand accesses
system.cpu0.icache.overall_mshr_miss_rate::.cpu0.inst     0.485115                       # mshr miss rate for overall accesses
system.cpu0.icache.overall_mshr_miss_rate::total     0.485115                       # mshr miss rate for overall accesses
system.cpu0.icache.demand_avg_mshr_miss_latency::.cpu0.inst 15239.035306                       # average overall mshr miss latency
system.cpu0.icache.demand_avg_mshr_miss_latency::total 15239.035306                       # average overall mshr miss latency
system.cpu0.icache.overall_avg_mshr_miss_latency::.cpu0.inst 15239.035306                       # average overall mshr miss latency
system.cpu0.icache.overall_avg_mshr_miss_latency::total 15239.035306                       # average overall mshr miss latency
system.cpu0.icache.replacements                581578                       # number of replacements
system.cpu0.icache.ReadReq_hits::.cpu0.inst       617285                       # number of ReadReq hits
system.cpu0.icache.ReadReq_hits::total         617285                       # number of ReadReq hits
system.cpu0.icache.ReadReq_misses::.cpu0.inst       581594                       # number of ReadReq misses
system.cpu0.icache.ReadReq_misses::total       581594                       # number of ReadReq misses
system.cpu0.icache.ReadReq_miss_latency::.cpu0.inst   9444525500                       # number of ReadReq miss cycles
system.cpu0.icache.ReadReq_miss_latency::total   9444525500                       # number of ReadReq miss cycles
system.cpu0.icache.ReadReq_accesses::.cpu0.inst      1198879                       # number of ReadReq accesses(hits+misses)
system.cpu0.icache.ReadReq_accesses::total      1198879                       # number of ReadReq accesses(hits+misses)
system.cpu0.icache.ReadReq_miss_rate::.cpu0.inst     0.485115                       # miss rate for ReadReq accesses
system.cpu0.icache.ReadReq_miss_rate::total     0.485115                       # miss rate for ReadReq accesses
system.cpu0.icache.ReadReq_avg_miss_latency::.cpu0.inst 16239.035306                       # average ReadReq miss latency
system.cpu0.icache.ReadReq_avg_miss_latency::total 16239.035306                       # average ReadReq miss latency
system.cpu0.icache.ReadReq_mshr_misses::.cpu0.inst       581594                       # number of ReadReq MSHR misses
system.cpu0.icache.ReadReq_mshr_misses::total       581594                       # number of ReadReq MSHR misses
system.cpu0.icache.ReadReq_mshr_miss_latency::.cpu0.inst   8862931500                       # number of ReadReq MSHR miss cycles
system.cpu0.icache.ReadReq_mshr_miss_latency::total   8862931500                       # number of ReadReq MSHR miss cycles
system.cpu0.icache.ReadReq_mshr_miss_rate::.cpu0.inst     0.485115                       # mshr miss rate for ReadReq accesses
system.cpu0.icache.ReadReq_mshr_miss_rate::total     0.485115                       # mshr miss rate for ReadReq accesses
system.cpu0.icache.ReadReq_avg_mshr_miss_latency::.cpu0.inst 15239.035306                       # average ReadReq mshr miss latency
system.cpu0.icache.ReadReq_avg_mshr_miss_latency::total 15239.035306                       # average ReadReq mshr miss latency
system.cpu0.icache.power_state.pwrStateResidencyTicks::UNDEFINED  13986552500                       # Cumulative time (in ticks) in various power states
system.cpu0.icache.tags.tagsinuse           15.999020                       # Cycle average of tags in use
system.cpu0.icache.tags.total_refs            1198879                       # Total number of references to valid blocks.
system.cpu0.icache.tags.sampled_refs           581594                       # Sample count of references to valid blocks.
system.cpu0.icache.tags.avg_refs             2.061368                       # Average number of references to valid blocks.
system.cpu0.icache.tags.warmup_cycle            87500                       # Cycle when the warmup percentage was hit.
system.cpu0.icache.tags.occ_blocks::.cpu0.inst    15.999020                       # Average occupied blocks per requestor
system.cpu0.icache.tags.occ_percent::.cpu0.inst     0.999939                       # Average percentage of cache occupancy
system.cpu0.icache.tags.occ_percent::total     0.999939                       # Average percentage of cache occupancy
system.cpu0.icache.tags.occ_task_id_blocks::1024           16                       # Occupied blocks per task id
system.cpu0.icache.tags.age_task_id_blocks_1024::0           16                       # Occupied blocks per task id
system.cpu0.icache.tags.occ_task_id_percent::1024            1                       # Percentage of cache occupancy per task id
system.cpu0.icache.tags.tag_accesses         10172626                       # Number of tag accesses
system.cpu0.icache.tags.data_accesses        10172626                       # Number of data accesses
system.cpu0.icache.tags.power_state.pwrStateResidencyTicks::UNDEFINED  13986552500                       # Cumulative time (in ticks) in various power states
system.cpu0.dtb.walker.power_state.pwrStateResidencyTicks::UNDEFINED  13986552500                       # Cumulative time (in ticks) in various power states
system.cpu0.interrupts.clk_domain.clock          8000                       # Clock period in ticks
system.cpu0.itb_walker_cache.blocked_cycles::no_mshrs            0                       # number of cycles access was blocked
system.cpu0.itb_walker_cache.blocked_cycles::no_targets            0                       # number of cycles access was blocked
system.cpu0.itb_walker_cache.blocked::no_mshrs            0                       # number of cycles access was blocked
system.cpu0.itb_walker_cache.blocked::no_targets            0                       # number of cycles access was blocked
system.cpu0.itb_walker_cache.avg_blocked_cycles::no_mshrs          nan                       # average number of cycles each access was blocked
system.cpu0.itb_walker_cache.avg_blocked_cycles::no_targets          nan                       # average number of cycles each access was blocked
system.cpu0.itb_walker_cache.replacements            0                       # number of replacements
system.cpu0.itb_walker_cache.power_state.pwrStateResidencyTicks::UNDEFINED  13986552500                       # Cumulative time (in ticks) in various power states
system.cpu0.itb_walker_cache.tags.tagsinuse            0                       # Cycle average of tags in use
system.cpu0.itb_walker_cache.tags.total_refs            0                       # Total number of references to valid blocks.
system.cpu0.itb_walker_cache.tags.sampled_refs            0                       # Sample count of references to valid blocks.
system.cpu0.itb_walker_cache.tags.avg_refs          nan                       # Average number of references to valid blocks.
system.cpu0.itb_walker_cache.tags.warmup_cycle            0                       # Cycle when the warmup percentage was hit.
system.cpu0.itb_walker_cache.tags.tag_accesses            0                       # Number of tag accesses
system.cpu0.itb_walker_cache.tags.data_accesses            0                       # Number of data accesses
system.cpu0.itb_walker_cache.tags.power_state.pwrStateResidencyTicks::UNDEFINED  13986552500                       # Cumulative time (in ticks) in various power states
system.cpu0.dtb_walker_cache.blocked_cycles::no_mshrs            0                       # number of cycles access was blocked
system.cpu0.dtb_walker_cache.blocked_cycles::no_targets            0                       # number of cycles access was blocked
system.cpu0.dtb_walker_cache.blocked::no_mshrs            0                       # number of cycles access was blocked
system.cpu0.dtb_walker_cache.blocked::no_targets            0                       # number of cycles access was blocked
system.cpu0.dtb_walker_cache.avg_blocked_cycles::no_mshrs          nan                       # average number of cycles each access was blocked
system.cpu0.dtb_walker_cache.avg_blocked_cycles::no_targets          nan                       # average number of cycles each access was blocked
system.cpu0.dtb_walker_cache.replacements            0                       # number of replacements
system.cpu0.dtb_walker_cache.power_state.pwrStateResidencyTicks::UNDEFINED  13986552500                       # Cumulative time (in ticks) in various power states
system.cpu0.dtb_walker_cache.tags.tagsinuse            0                       # Cycle average of tags in use
system.cpu0.dtb_walker_cache.tags.total_refs            0                       # Total number of references to valid blocks.
system.cpu0.dtb_walker_cache.tags.sampled_refs            0                       # Sample count of references to valid blocks.
system.cpu0.dtb_walker_cache.tags.avg_refs          nan                       # Average number of references to valid blocks.
system.cpu0.dtb_walker_cache.tags.warmup_cycle            0                       # Cycle when the warmup percentage was hit.
system.cpu0.dtb_walker_cache.tags.tag_accesses            0                       # Number of tag accesses
system.cpu0.dtb_walker_cache.tags.data_accesses            0                       # Number of data accesses
system.cpu0.dtb_walker_cache.tags.power_state.pwrStateResidencyTicks::UNDEFINED  13986552500                       # Cumulative time (in ticks) in various power states
system.cpu0.dcache.demand_hits::.cpu0.data      1213387                       # number of demand (read+write) hits
system.cpu0.dcache.demand_hits::total         1213387                       # number of demand (read+write) hits
system.cpu0.dcache.overall_hits::.cpu0.data      1213387                       # number of overall hits
system.cpu0.dcache.overall_hits::total        1213387                       # number of overall hits
system.cpu0.dcache.demand_misses::.cpu0.data       261889                       # number of demand (read+write) misses
system.cpu0.dcache.demand_misses::total        261889                       # number of demand (read+write) misses
system.cpu0.dcache.overall_misses::.cpu0.data       261889                       # number of overall misses
system.cpu0.dcache.overall_misses::total       261889                       # number of overall misses
system.cpu0.dcache.demand_miss_latency::.cpu0.data   5789553000                       # number of demand (read+write) miss cycles
system.cpu0.dcache.demand_miss_latency::total   5789553000                       # number of demand (read+write) miss cycles
system.cpu0.dcache.overall_miss_latency::.cpu0.data   5789553000                       # number of overall miss cycles
system.cpu0.dcache.overall_miss_latency::total   5789553000                       # number of overall miss cycles
system.cpu0.dcache.demand_accesses::.cpu0.data      1475276                       # number of demand (read+write) accesses
system.cpu0.dcache.demand_accesses::total      1475276                       # number of demand (read+write) accesses
system.cpu0.dcache.overall_accesses::.cpu0.data      1475276                       # number of overall (read+write) accesses
system.cpu0.dcache.overall_accesses::total      1475276                       # number of overall (read+write) accesses
system.cpu0.dcache.demand_miss_rate::.cpu0.data     0.177519                       # miss rate for demand accesses
system.cpu0.dcache.demand_miss_rate::total     0.177519                       # miss rate for demand accesses
system.cpu0.dcache.overall_miss_rate::.cpu0.data     0.177519                       # miss rate for overall accesses
system.cpu0.dcache.overall_miss_rate::total     0.177519                       # miss rate for overall accesses
system.cpu0.dcache.demand_avg_miss_latency::.cpu0.data 22106.896433                       # average overall miss latency
system.cpu0.dcache.demand_avg_miss_latency::total 22106.896433                       # average overall miss latency
system.cpu0.dcache.overall_avg_miss_latency::.cpu0.data 22106.896433                       # average overall miss latency
system.cpu0.dcache.overall_avg_miss_latency::total 22106.896433                       # average overall miss latency
system.cpu0.dcache.blocked_cycles::no_mshrs            0                       # number of cycles access was blocked
system.cpu0.dcache.blocked_cycles::no_targets            0                       # number of cycles access was blocked
system.cpu0.dcache.blocked::no_mshrs                0                       # number of cycles access was blocked
system.cpu0.dcache.blocked::no_targets              0                       # number of cycles access was blocked
system.cpu0.dcache.avg_blocked_cycles::no_mshrs          nan                       # average number of cycles each access was blocked
system.cpu0.dcache.avg_blocked_cycles::no_targets          nan                       # average number of cycles each access was blocked
system.cpu0.dcache.writebacks::.writebacks       146551                       # number of writebacks
system.cpu0.dcache.writebacks::total           146551                       # number of writebacks
system.cpu0.dcache.demand_mshr_hits::.cpu0.data        31086                       # number of demand (read+write) MSHR hits
system.cpu0.dcache.demand_mshr_hits::total        31086                       # number of demand (read+write) MSHR hits
system.cpu0.dcache.overall_mshr_hits::.cpu0.data        31086                       # number of overall MSHR hits
system.cpu0.dcache.overall_mshr_hits::total        31086                       # number of overall MSHR hits
system.cpu0.dcache.demand_mshr_misses::.cpu0.data       230803                       # number of demand (read+write) MSHR misses
system.cpu0.dcache.demand_mshr_misses::total       230803                       # number of demand (read+write) MSHR misses
system.cpu0.dcache.overall_mshr_misses::.cpu0.data       230803                       # number of overall MSHR misses
system.cpu0.dcache.overall_mshr_misses::total       230803                       # number of overall MSHR misses
system.cpu0.dcache.demand_mshr_miss_latency::.cpu0.data   4678659500                       # number of demand (read+write) MSHR miss cycles
system.cpu0.dcache.demand_mshr_miss_latency::total   4678659500                       # number of demand (read+write) MSHR miss cycles
system.cpu0.dcache.overall_mshr_miss_latency::.cpu0.data   4678659500                       # number of overall MSHR miss cycles
system.cpu0.dcache.overall_mshr_miss_latency::total   4678659500                       # number of overall MSHR miss cycles
system.cpu0.dcache.demand_mshr_miss_rate::.cpu0.data     0.156447                       # mshr miss rate for demand accesses
system.cpu0.dcache.demand_mshr_miss_rate::total     0.156447                       # mshr miss rate for demand accesses
system.cpu0.dcache.overall_mshr_miss_rate::.cpu0.data     0.156447                       # mshr miss rate for overall accesses
system.cpu0.dcache.overall_mshr_miss_rate::total     0.156447                       # mshr miss rate for overall accesses
system.cpu0.dcache.demand_avg_mshr_miss_latency::.cpu0.data 20271.224811                       # average overall mshr miss latency
system.cpu0.dcache.demand_avg_mshr_miss_latency::total 20271.224811                       # average overall mshr miss latency
system.cpu0.dcache.overall_avg_mshr_miss_latency::.cpu0.data 20271.224811                       # average overall mshr miss latency
system.cpu0.dcache.overall_avg_mshr_miss_latency::total 20271.224811                       # average overall mshr miss latency
system.cpu0.dcache.replacements                230787                       # number of replacements
system.cpu0.dcache.ReadReq_hits::.cpu0.data       704561                       # number of ReadReq hits
system.cpu0.dcache.ReadReq_hits::total         704561                       # number of ReadReq hits
system.cpu0.dcache.ReadReq_misses::.cpu0.data       169348                       # number of ReadReq misses
system.cpu0.dcache.ReadReq_misses::total       169348                       # number of ReadReq misses
system.cpu0.dcache.ReadReq_miss_latency::.cpu0.data   3158797000                       # number of ReadReq miss cycles
system.cpu0.dcache.ReadReq_miss_latency::total   3158797000                       # number of ReadReq miss cycles
system.cpu0.dcache.ReadReq_accesses::.cpu0.data       873909                       # number of ReadReq accesses(hits+misses)
system.cpu0.dcache.ReadReq_accesses::total       873909                       # number of ReadReq accesses(hits+misses)
system.cpu0.dcache.ReadReq_miss_rate::.cpu0.data     0.193782                       # miss rate for ReadReq accesses
system.cpu0.dcache.ReadReq_miss_rate::total     0.193782                       # miss rate for ReadReq accesses
system.cpu0.dcache.ReadReq_avg_miss_latency::.cpu0.data 18652.697404                       # average ReadReq miss latency
system.cpu0.dcache.ReadReq_avg_miss_latency::total 18652.697404                       # average ReadReq miss latency
system.cpu0.dcache.ReadReq_mshr_hits::.cpu0.data         6573                       # number of ReadReq MSHR hits
system.cpu0.dcache.ReadReq_mshr_hits::total         6573                       # number of ReadReq MSHR hits
system.cpu0.dcache.ReadReq_mshr_misses::.cpu0.data       162775                       # number of ReadReq MSHR misses
system.cpu0.dcache.ReadReq_mshr_misses::total       162775                       # number of ReadReq MSHR misses
system.cpu0.dcache.ReadReq_mshr_miss_latency::.cpu0.data   2885999000                       # number of ReadReq MSHR miss cycles
system.cpu0.dcache.ReadReq_mshr_miss_latency::total   2885999000                       # number of ReadReq MSHR miss cycles
system.cpu0.dcache.ReadReq_mshr_miss_rate::.cpu0.data     0.186261                       # mshr miss rate for ReadReq accesses
system.cpu0.dcache.ReadReq_mshr_miss_rate::total     0.186261                       # mshr miss rate for ReadReq accesses
system.cpu0.dcache.ReadReq_avg_mshr_miss_latency::.cpu0.data 17729.989249                       # average ReadReq mshr miss latency
system.cpu0.dcache.ReadReq_avg_mshr_miss_latency::total 17729.989249                       # average ReadReq mshr miss latency
system.cpu0.dcache.WriteReq_hits::.cpu0.data       508826                       # number of WriteReq hits
system.cpu0.dcache.WriteReq_hits::total        508826                       # number of WriteReq hits
system.cpu0.dcache.WriteReq_misses::.cpu0.data        92541                       # number of WriteReq misses
system.cpu0.dcache.WriteReq_misses::total        92541                       # number of WriteReq misses
system.cpu0.dcache.WriteReq_miss_latency::.cpu0.data   2630756000                       # number of WriteReq miss cycles
system.cpu0.dcache.WriteReq_miss_latency::total   2630756000                       # number of WriteReq miss cycles
system.cpu0.dcache.WriteReq_accesses::.cpu0.data       601367                       # number of WriteReq accesses(hits+misses)
system.cpu0.dcache.WriteReq_accesses::total       601367                       # number of WriteReq accesses(hits+misses)
system.cpu0.dcache.WriteReq_miss_rate::.cpu0.data     0.153884                       # miss rate for WriteReq accesses
system.cpu0.dcache.WriteReq_miss_rate::total     0.153884                       # miss rate for WriteReq accesses
system.cpu0.dcache.WriteReq_avg_miss_latency::.cpu0.data 28428.004884                       # average WriteReq miss latency
system.cpu0.dcache.WriteReq_avg_miss_latency::total 28428.004884                       # average WriteReq miss latency
system.cpu0.dcache.WriteReq_mshr_hits::.cpu0.data        24513                       # number of WriteReq MSHR hits
system.cpu0.dcache.WriteReq_mshr_hits::total        24513                       # number of WriteReq MSHR hits
system.cpu0.dcache.WriteReq_mshr_misses::.cpu0.data        68028                       # number of WriteReq MSHR misses
system.cpu0.dcache.WriteReq_mshr_misses::total        68028                       # number of WriteReq MSHR misses
system.cpu0.dcache.WriteReq_mshr_miss_latency::.cpu0.data   1792660500                       # number of WriteReq MSHR miss cycles
system.cpu0.dcache.WriteReq_mshr_miss_latency::total   1792660500                       # number of WriteReq MSHR miss cycles
system.cpu0.dcache.WriteReq_mshr_miss_rate::.cpu0.data     0.113122                       # mshr miss rate for WriteReq accesses
system.cpu0.dcache.WriteReq_mshr_miss_rate::total     0.113122                       # mshr miss rate for WriteReq accesses
system.cpu0.dcache.WriteReq_avg_mshr_miss_latency::.cpu0.data 26351.803669                       # average WriteReq mshr miss latency
system.cpu0.dcache.WriteReq_avg_mshr_miss_latency::total 26351.803669                       # average WriteReq mshr miss latency
system.cpu0.dcache.power_state.pwrStateResidencyTicks::UNDEFINED  13986552500                       # Cumulative time (in ticks) in various power states
system.cpu0.dcache.tags.tagsinuse           15.999078                       # Cycle average of tags in use
system.cpu0.dcache.tags.total_refs            1444190                       # Total number of references to valid blocks.
system.cpu0.dcache.tags.sampled_refs           230803                       # Sample count of references to valid blocks.
system.cpu0.dcache.tags.avg_refs             6.257241                       # Average number of references to valid blocks.
system.cpu0.dcache.tags.warmup_cycle           178500                       # Cycle when the warmup percentage was hit.
system.cpu0.dcache.tags.occ_blocks::.cpu0.data    15.999078                       # Average occupied blocks per requestor
system.cpu0.dcache.tags.occ_percent::.cpu0.data     0.999942                       # Average percentage of cache occupancy
system.cpu0.dcache.tags.occ_percent::total     0.999942                       # Average percentage of cache occupancy
system.cpu0.dcache.tags.occ_task_id_blocks::1024           16                       # Occupied blocks per task id
system.cpu0.dcache.tags.age_task_id_blocks_1024::0           16                       # Occupied blocks per task id
system.cpu0.dcache.tags.occ_task_id_percent::1024            1                       # Percentage of cache occupancy per task id
system.cpu0.dcache.tags.tag_accesses         12033011                       # Number of tag accesses
system.cpu0.dcache.tags.data_accesses        12033011                       # Number of data accesses
system.cpu0.dcache.tags.power_state.pwrStateResidencyTicks::UNDEFINED  13986552500                       # Cumulative time (in ticks) in various power states
system.cpu0.power_state.pwrStateResidencyTicks::ON  13986552500                       # Cumulative time (in ticks) in various power states
system.cpu0.itb.walker.power_state.pwrStateResidencyTicks::UNDEFINED  13986552500                       # Cumulative time (in ticks) in various power states
system.cpu1.icache.demand_hits::.cpu1.inst      2429339                       # number of demand (read+write) hits
system.cpu1.icache.demand_hits::total         2429339                       # number of demand (read+write) hits
system.cpu1.icache.overall_hits::.cpu1.inst      2429339                       # number of overall hits
system.cpu1.icache.overall_hits::total        2429339                       # number of overall hits
system.cpu1.icache.demand_misses::.cpu1.inst        13857                       # number of demand (read+write) misses
system.cpu1.icache.demand_misses::total         13857                       # number of demand (read+write) misses
system.cpu1.icache.overall_misses::.cpu1.inst        13857                       # number of overall misses
system.cpu1.icache.overall_misses::total        13857                       # number of overall misses
system.cpu1.icache.demand_miss_latency::.cpu1.inst    331974000                       # number of demand (read+write) miss cycles
system.cpu1.icache.demand_miss_latency::total    331974000                       # number of demand (read+write) miss cycles
system.cpu1.icache.overall_miss_latency::.cpu1.inst    331974000                       # number of overall miss cycles
system.cpu1.icache.overall_miss_latency::total    331974000                       # number of overall miss cycles
system.cpu1.icache.demand_accesses::.cpu1.inst      2443196                       # number of demand (read+write) accesses
system.cpu1.icache.demand_accesses::total      2443196                       # number of demand (read+write) accesses
system.cpu1.icache.overall_accesses::.cpu1.inst      2443196                       # number of overall (read+write) accesses
system.cpu1.icache.overall_accesses::total      2443196                       # number of overall (read+write) accesses
system.cpu1.icache.demand_miss_rate::.cpu1.inst     0.005672                       # miss rate for demand accesses
system.cpu1.icache.demand_miss_rate::total     0.005672                       # miss rate for demand accesses
system.cpu1.icache.overall_miss_rate::.cpu1.inst     0.005672                       # miss rate for overall accesses
system.cpu1.icache.overall_miss_rate::total     0.005672                       # miss rate for overall accesses
system.cpu1.icache.demand_avg_miss_latency::.cpu1.inst 23957.133579                       # average overall miss latency
system.cpu1.icache.demand_avg_miss_latency::total 23957.133579                       # average overall miss latency
system.cpu1.icache.overall_avg_miss_latency::.cpu1.inst 23957.133579                       # average overall miss latency
system.cpu1.icache.overall_avg_miss_latency::total 23957.133579                       # average overall miss latency
system.cpu1.icache.blocked_cycles::no_mshrs            0                       # number of cycles access was blocked
system.cpu1.icache.blocked_cycles::no_targets            0                       # number of cycles access was blocked
system.cpu1.icache.blocked::no_mshrs                0                       # number of cycles access was blocked
system.cpu1.icache.blocked::no_targets              0                       # number of cycles access was blocked
system.cpu1.icache.avg_blocked_cycles::no_mshrs          nan                       # average number of cycles each access was blocked
system.cpu1.icache.avg_blocked_cycles::no_targets          nan                       # average number of cycles each access was blocked
system.cpu1.icache.writebacks::.writebacks        13841                       # number of writebacks
system.cpu1.icache.writebacks::total            13841                       # number of writebacks
system.cpu1.icache.demand_mshr_misses::.cpu1.inst        13857                       # number of demand (read+write) MSHR misses
system.cpu1.icache.demand_mshr_misses::total        13857                       # number of demand (read+write) MSHR misses
system.cpu1.icache.overall_mshr_misses::.cpu1.inst        13857                       # number of overall MSHR misses
system.cpu1.icache.overall_mshr_misses::total        13857                       # number of overall MSHR misses
system.cpu1.icache.demand_mshr_miss_latency::.cpu1.inst    318117000                       # number of demand (read+write) MSHR miss cycles
system.cpu1.icache.demand_mshr_miss_latency::total    318117000                       # number of demand (read+write) MSHR miss cycles
system.cpu1.icache.overall_mshr_miss_latency::.cpu1.inst    318117000                       # number of overall MSHR miss cycles
system.cpu1.icache.overall_mshr_miss_latency::total    318117000                       # number of overall MSHR miss cycles
system.cpu1.icache.demand_mshr_miss_rate::.cpu1.inst     0.005672                       # mshr miss rate for demand accesses
system.cpu1.icache.demand_mshr_miss_rate::total     0.005672                       # mshr miss rate for demand accesses
system.cpu1.icache.overall_mshr_miss_rate::.cpu1.inst     0.005672                       # mshr miss rate for overall accesses
system.cpu1.icache.overall_mshr_miss_rate::total     0.005672                       # mshr miss rate for overall accesses
system.cpu1.icache.demand_avg_mshr_miss_latency::.cpu1.inst 22957.133579                       # average overall mshr miss latency
system.cpu1.icache.demand_avg_mshr_miss_latency::total 22957.133579                       # average overall mshr miss latency
system.cpu1.icache.overall_avg_mshr_miss_latency::.cpu1.inst 22957.133579                       # average overall mshr miss latency
system.cpu1.icache.overall_avg_mshr_miss_latency::total 22957.133579                       # average overall mshr miss latency
system.cpu1.icache.replacements                 13841                       # number of replacements
system.cpu1.icache.ReadReq_hits::.cpu1.inst      2429339                       # number of ReadReq hits
system.cpu1.icache.ReadReq_hits::total        2429339                       # number of ReadReq hits
system.cpu1.icache.ReadReq_misses::.cpu1.inst        13857                       # number of ReadReq misses
system.cpu1.icache.ReadReq_misses::total        13857                       # number of ReadReq misses
system.cpu1.icache.ReadReq_miss_latency::.cpu1.inst    331974000                       # number of ReadReq miss cycles
system.cpu1.icache.ReadReq_miss_latency::total    331974000                       # number of ReadReq miss cycles
system.cpu1.icache.ReadReq_accesses::.cpu1.inst      2443196                       # number of ReadReq accesses(hits+misses)
system.cpu1.icache.ReadReq_accesses::total      2443196                       # number of ReadReq accesses(hits+misses)
system.cpu1.icache.ReadReq_miss_rate::.cpu1.inst     0.005672                       # miss rate for ReadReq accesses
system.cpu1.icache.ReadReq_miss_rate::total     0.005672                       # miss rate for ReadReq accesses
system.cpu1.icache.ReadReq_avg_miss_latency::.cpu1.inst 23957.133579                       # average ReadReq miss latency
system.cpu1.icache.ReadReq_avg_miss_latency::total 23957.133579                       # average ReadReq miss latency
system.cpu1.icache.ReadReq_mshr_misses::.cpu1.inst        13857                       # number of ReadReq MSHR misses
system.cpu1.icache.ReadReq_mshr_misses::total        13857                       # number of ReadReq MSHR misses
system.cpu1.icache.ReadReq_mshr_miss_latency::.cpu1.inst    318117000                       # number of ReadReq MSHR miss cycles
system.cpu1.icache.ReadReq_mshr_miss_latency::total    318117000                       # number of ReadReq MSHR miss cycles
system.cpu1.icache.ReadReq_mshr_miss_rate::.cpu1.inst     0.005672                       # mshr miss rate for ReadReq accesses
system.cpu1.icache.ReadReq_mshr_miss_rate::total     0.005672                       # mshr miss rate for ReadReq accesses
system.cpu1.icache.ReadReq_avg_mshr_miss_latency::.cpu1.inst 22957.133579                       # average ReadReq mshr miss latency
system.cpu1.icache.ReadReq_avg_mshr_miss_latency::total 22957.133579                       # average ReadReq mshr miss latency
system.cpu1.icache.power_state.pwrStateResidencyTicks::UNDEFINED  13986552500                       # Cumulative time (in ticks) in various power states
system.cpu1.icache.tags.tagsinuse           15.998975                       # Cycle average of tags in use
system.cpu1.icache.tags.total_refs            2443196                       # Total number of references to valid blocks.
system.cpu1.icache.tags.sampled_refs            13857                       # Sample count of references to valid blocks.
system.cpu1.icache.tags.avg_refs           176.314931                       # Average number of references to valid blocks.
system.cpu1.icache.tags.warmup_cycle            92500                       # Cycle when the warmup percentage was hit.
system.cpu1.icache.tags.occ_blocks::.cpu1.inst    15.998975                       # Average occupied blocks per requestor
system.cpu1.icache.tags.occ_percent::.cpu1.inst     0.999936                       # Average percentage of cache occupancy
system.cpu1.icache.tags.occ_percent::total     0.999936                       # Average percentage of cache occupancy
system.cpu1.icache.tags.occ_task_id_blocks::1024           16                       # Occupied blocks per task id
system.cpu1.icache.tags.age_task_id_blocks_1024::1           16                       # Occupied blocks per task id
system.cpu1.icache.tags.occ_task_id_percent::1024            1                       # Percentage of cache occupancy per task id
system.cpu1.icache.tags.tag_accesses         19559425                       # Number of tag accesses
system.cpu1.icache.tags.data_accesses        19559425                       # Number of data accesses
system.cpu1.icache.tags.power_state.pwrStateResidencyTicks::UNDEFINED  13986552500                       # Cumulative time (in ticks) in various power states
system.cpu1.dtb.walker.power_state.pwrStateResidencyTicks::UNDEFINED  13986552500                       # Cumulative time (in ticks) in various power states
system.cpu1.interrupts.clk_domain.clock          8000                       # Clock period in ticks
system.cpu1.itb_walker_cache.blocked_cycles::no_mshrs            0                       # number of cycles access was blocked
system.cpu1.itb_walker_cache.blocked_cycles::no_targets            0                       # number of cycles access was blocked
system.cpu1.itb_walker_cache.blocked::no_mshrs            0                       # number of cycles access was blocked
system.cpu1.itb_walker_cache.blocked::no_targets            0                       # number of cycles access was blocked
system.cpu1.itb_walker_cache.avg_blocked_cycles::no_mshrs          nan                       # average number of cycles each access was blocked
system.cpu1.itb_walker_cache.avg_blocked_cycles::no_targets          nan                       # average number of cycles each access was blocked
system.cpu1.itb_walker_cache.replacements            0                       # number of replacements
system.cpu1.itb_walker_cache.power_state.pwrStateResidencyTicks::UNDEFINED  13986552500                       # Cumulative time (in ticks) in various power states
system.cpu1.itb_walker_cache.tags.tagsinuse            0                       # Cycle average of tags in use
system.cpu1.itb_walker_cache.tags.total_refs            0                       # Total number of references to valid blocks.
system.cpu1.itb_walker_cache.tags.sampled_refs            0                       # Sample count of references to valid blocks.
system.cpu1.itb_walker_cache.tags.avg_refs          nan                       # Average number of references to valid blocks.
system.cpu1.itb_walker_cache.tags.warmup_cycle            0                       # Cycle when the warmup percentage was hit.
system.cpu1.itb_walker_cache.tags.tag_accesses            0                       # Number of tag accesses
system.cpu1.itb_walker_cache.tags.data_accesses            0                       # Number of data accesses
system.cpu1.itb_walker_cache.tags.power_state.pwrStateResidencyTicks::UNDEFINED  13986552500                       # Cumulative time (in ticks) in various power states
system.cpu1.dtb_walker_cache.blocked_cycles::no_mshrs            0                       # number of cycles access was blocked
system.cpu1.dtb_walker_cache.blocked_cycles::no_targets            0                       # number of cycles access was blocked
system.cpu1.dtb_walker_cache.blocked::no_mshrs            0                       # number of cycles access was blocked
system.cpu1.dtb_walker_cache.blocked::no_targets            0                       # number of cycles access was blocked
system.cpu1.dtb_walker_cache.avg_blocked_cycles::no_mshrs          nan                       # average number of cycles each access was blocked
system.cpu1.dtb_walker_cache.avg_blocked_cycles::no_targets          nan                       # average number of cycles each access was blocked
system.cpu1.dtb_walker_cache.replacements            0                       # number of replacements
system.cpu1.dtb_walker_cache.power_state.pwrStateResidencyTicks::UNDEFINED  13986552500                       # Cumulative time (in ticks) in various power states
system.cpu1.dtb_walker_cache.tags.tagsinuse            0                       # Cycle average of tags in use
system.cpu1.dtb_walker_cache.tags.total_refs            0                       # Total number of references to valid blocks.
system.cpu1.dtb_walker_cache.tags.sampled_refs            0                       # Sample count of references to valid blocks.
system.cpu1.dtb_walker_cache.tags.avg_refs          nan                       # Average number of references to valid blocks.
system.cpu1.dtb_walker_cache.tags.warmup_cycle            0                       # Cycle when the warmup percentage was hit.
system.cpu1.dtb_walker_cache.tags.tag_accesses            0                       # Number of tag accesses
system.cpu1.dtb_walker_cache.tags.data_accesses            0                       # Number of data accesses
system.cpu1.dtb_walker_cache.tags.power_state.pwrStateResidencyTicks::UNDEFINED  13986552500                       # Cumulative time (in ticks) in various power states
system.cpu1.dcache.demand_hits::.cpu1.data      5861469                       # number of demand (read+write) hits
system.cpu1.dcache.demand_hits::total         5861469                       # number of demand (read+write) hits
system.cpu1.dcache.overall_hits::.cpu1.data      5861784                       # number of overall hits
system.cpu1.dcache.overall_hits::total        5861784                       # number of overall hits
system.cpu1.dcache.demand_misses::.cpu1.data       226474                       # number of demand (read+write) misses
system.cpu1.dcache.demand_misses::total        226474                       # number of demand (read+write) misses
system.cpu1.dcache.overall_misses::.cpu1.data       233550                       # number of overall misses
system.cpu1.dcache.overall_misses::total       233550                       # number of overall misses
system.cpu1.dcache.demand_miss_latency::.cpu1.data   4058778489                       # number of demand (read+write) miss cycles
system.cpu1.dcache.demand_miss_latency::total   4058778489                       # number of demand (read+write) miss cycles
system.cpu1.dcache.overall_miss_latency::.cpu1.data   4058778489                       # number of overall miss cycles
system.cpu1.dcache.overall_miss_latency::total   4058778489                       # number of overall miss cycles
system.cpu1.dcache.demand_accesses::.cpu1.data      6087943                       # number of demand (read+write) accesses
system.cpu1.dcache.demand_accesses::total      6087943                       # number of demand (read+write) accesses
system.cpu1.dcache.overall_accesses::.cpu1.data      6095334                       # number of overall (read+write) accesses
system.cpu1.dcache.overall_accesses::total      6095334                       # number of overall (read+write) accesses
system.cpu1.dcache.demand_miss_rate::.cpu1.data     0.037200                       # miss rate for demand accesses
system.cpu1.dcache.demand_miss_rate::total     0.037200                       # miss rate for demand accesses
system.cpu1.dcache.overall_miss_rate::.cpu1.data     0.038316                       # miss rate for overall accesses
system.cpu1.dcache.overall_miss_rate::total     0.038316                       # miss rate for overall accesses
system.cpu1.dcache.demand_avg_miss_latency::.cpu1.data 17921.609054                       # average overall miss latency
system.cpu1.dcache.demand_avg_miss_latency::total 17921.609054                       # average overall miss latency
system.cpu1.dcache.overall_avg_miss_latency::.cpu1.data 17378.627656                       # average overall miss latency
system.cpu1.dcache.overall_avg_miss_latency::total 17378.627656                       # average overall miss latency
system.cpu1.dcache.blocked_cycles::no_mshrs         3377                       # number of cycles access was blocked
system.cpu1.dcache.blocked_cycles::no_targets            0                       # number of cycles access was blocked
system.cpu1.dcache.blocked::no_mshrs               60                       # number of cycles access was blocked
system.cpu1.dcache.blocked::no_targets              0                       # number of cycles access was blocked
system.cpu1.dcache.avg_blocked_cycles::no_mshrs    56.283333                       # average number of cycles each access was blocked
system.cpu1.dcache.avg_blocked_cycles::no_targets          nan                       # average number of cycles each access was blocked
system.cpu1.dcache.writebacks::.writebacks        60843                       # number of writebacks
system.cpu1.dcache.writebacks::total            60843                       # number of writebacks
system.cpu1.dcache.demand_mshr_hits::.cpu1.data         8847                       # number of demand (read+write) MSHR hits
system.cpu1.dcache.demand_mshr_hits::total         8847                       # number of demand (read+write) MSHR hits
system.cpu1.dcache.overall_mshr_hits::.cpu1.data         8847                       # number of overall MSHR hits
system.cpu1.dcache.overall_mshr_hits::total         8847                       # number of overall MSHR hits
system.cpu1.dcache.demand_mshr_misses::.cpu1.data       217627                       # number of demand (read+write) MSHR misses
system.cpu1.dcache.demand_mshr_misses::total       217627                       # number of demand (read+write) MSHR misses
system.cpu1.dcache.overall_mshr_misses::.cpu1.data       221370                       # number of overall MSHR misses
system.cpu1.dcache.overall_mshr_misses::total       221370                       # number of overall MSHR misses
system.cpu1.dcache.demand_mshr_miss_latency::.cpu1.data   3613409500                       # number of demand (read+write) MSHR miss cycles
system.cpu1.dcache.demand_mshr_miss_latency::total   3613409500                       # number of demand (read+write) MSHR miss cycles
system.cpu1.dcache.overall_mshr_miss_latency::.cpu1.data   3906267500                       # number of overall MSHR miss cycles
system.cpu1.dcache.overall_mshr_miss_latency::total   3906267500                       # number of overall MSHR miss cycles
system.cpu1.dcache.demand_mshr_miss_rate::.cpu1.data     0.035747                       # mshr miss rate for demand accesses
system.cpu1.dcache.demand_mshr_miss_rate::total     0.035747                       # mshr miss rate for demand accesses
system.cpu1.dcache.overall_mshr_miss_rate::.cpu1.data     0.036318                       # mshr miss rate for overall accesses
system.cpu1.dcache.overall_mshr_miss_rate::total     0.036318                       # mshr miss rate for overall accesses
system.cpu1.dcache.demand_avg_mshr_miss_latency::.cpu1.data 16603.681988                       # average overall mshr miss latency
system.cpu1.dcache.demand_avg_mshr_miss_latency::total 16603.681988                       # average overall mshr miss latency
system.cpu1.dcache.overall_avg_mshr_miss_latency::.cpu1.data 17645.875683                       # average overall mshr miss latency
system.cpu1.dcache.overall_avg_mshr_miss_latency::total 17645.875683                       # average overall mshr miss latency
system.cpu1.dcache.replacements                221354                       # number of replacements
system.cpu1.dcache.ReadReq_hits::.cpu1.data      3983190                       # number of ReadReq hits
system.cpu1.dcache.ReadReq_hits::total        3983190                       # number of ReadReq hits
system.cpu1.dcache.ReadReq_misses::.cpu1.data       163064                       # number of ReadReq misses
system.cpu1.dcache.ReadReq_misses::total       163064                       # number of ReadReq misses
system.cpu1.dcache.ReadReq_miss_latency::.cpu1.data   2423654500                       # number of ReadReq miss cycles
system.cpu1.dcache.ReadReq_miss_latency::total   2423654500                       # number of ReadReq miss cycles
system.cpu1.dcache.ReadReq_accesses::.cpu1.data      4146254                       # number of ReadReq accesses(hits+misses)
system.cpu1.dcache.ReadReq_accesses::total      4146254                       # number of ReadReq accesses(hits+misses)
system.cpu1.dcache.ReadReq_miss_rate::.cpu1.data     0.039328                       # miss rate for ReadReq accesses
system.cpu1.dcache.ReadReq_miss_rate::total     0.039328                       # miss rate for ReadReq accesses
system.cpu1.dcache.ReadReq_avg_miss_latency::.cpu1.data 14863.210151                       # average ReadReq miss latency
system.cpu1.dcache.ReadReq_avg_miss_latency::total 14863.210151                       # average ReadReq miss latency
system.cpu1.dcache.ReadReq_mshr_hits::.cpu1.data          443                       # number of ReadReq MSHR hits
system.cpu1.dcache.ReadReq_mshr_hits::total          443                       # number of ReadReq MSHR hits
system.cpu1.dcache.ReadReq_mshr_misses::.cpu1.data       162621                       # number of ReadReq MSHR misses
system.cpu1.dcache.ReadReq_mshr_misses::total       162621                       # number of ReadReq MSHR misses
system.cpu1.dcache.ReadReq_mshr_miss_latency::.cpu1.data   2240667000                       # number of ReadReq MSHR miss cycles
system.cpu1.dcache.ReadReq_mshr_miss_latency::total   2240667000                       # number of ReadReq MSHR miss cycles
system.cpu1.dcache.ReadReq_mshr_miss_rate::.cpu1.data     0.039221                       # mshr miss rate for ReadReq accesses
system.cpu1.dcache.ReadReq_mshr_miss_rate::total     0.039221                       # mshr miss rate for ReadReq accesses
system.cpu1.dcache.ReadReq_avg_mshr_miss_latency::.cpu1.data 13778.460346                       # average ReadReq mshr miss latency
system.cpu1.dcache.ReadReq_avg_mshr_miss_latency::total 13778.460346                       # average ReadReq mshr miss latency
system.cpu1.dcache.WriteReq_hits::.cpu1.data      1878279                       # number of WriteReq hits
system.cpu1.dcache.WriteReq_hits::total       1878279                       # number of WriteReq hits
system.cpu1.dcache.WriteReq_misses::.cpu1.data        63410                       # number of WriteReq misses
system.cpu1.dcache.WriteReq_misses::total        63410                       # number of WriteReq misses
system.cpu1.dcache.WriteReq_miss_latency::.cpu1.data   1635123989                       # number of WriteReq miss cycles
system.cpu1.dcache.WriteReq_miss_latency::total   1635123989                       # number of WriteReq miss cycles
system.cpu1.dcache.WriteReq_accesses::.cpu1.data      1941689                       # number of WriteReq accesses(hits+misses)
system.cpu1.dcache.WriteReq_accesses::total      1941689                       # number of WriteReq accesses(hits+misses)
system.cpu1.dcache.WriteReq_miss_rate::.cpu1.data     0.032657                       # miss rate for WriteReq accesses
[...]
system.mem_ctrls.bytesPerActivate::256-383         3521     14.88%     81.24% # Bytes accessed per row activation
system.mem_ctrls.bytesPerActivate::384-511         1913      8.09%     89.32% # Bytes accessed per row activation
system.mem_ctrls.bytesPerActivate::512-639         1186      5.01%     94.34% # Bytes accessed per row activation
system.mem_ctrls.bytesPerActivate::640-767          401      1.69%     96.03% # Bytes accessed per row activation
system.mem_ctrls.bytesPerActivate::768-895          209      0.88%     96.91% # Bytes accessed per row activation
system.mem_ctrls.bytesPerActivate::896-1023          149      0.63%     97.54% # Bytes accessed per row activation
system.mem_ctrls.bytesPerActivate::1024-1151          581      2.46%    100.00% # Bytes accessed per row activation
system.mem_ctrls.bytesPerActivate::total        23661                       # Bytes accessed per row activation
system.mem_ctrls.rdPerTurnAround::samples         1349                       # Reads before turning the bus around for writes
system.mem_ctrls.rdPerTurnAround::mean      50.237213                       # Reads before turning the bus around for writes
system.mem_ctrls.rdPerTurnAround::gmean     43.318667                       # Reads before turning the bus around for writes
system.mem_ctrls.rdPerTurnAround::stdev     50.275813                       # Reads before turning the bus around for writes
system.mem_ctrls.rdPerTurnAround::0-31            300     22.24%     22.24% # Reads before turning the bus around for writes
system.mem_ctrls.rdPerTurnAround::32-63           875     64.86%     87.10% # Reads before turning the bus around for writes
system.mem_ctrls.rdPerTurnAround::64-95           134      9.93%     97.03% # Reads before turning the bus around for writes
system.mem_ctrls.rdPerTurnAround::96-127           14      1.04%     98.07% # Reads before turning the bus around for writes
system.mem_ctrls.rdPerTurnAround::128-159            5      0.37%     98.44% # Reads before turning the bus around for writes
system.mem_ctrls.rdPerTurnAround::160-191            5      0.37%     98.81% # Reads before turning the bus around for writes
system.mem_ctrls.rdPerTurnAround::192-223            7      0.52%     99.33% # Reads before turning the bus around for writes
system.mem_ctrls.rdPerTurnAround::224-255            1      0.07%     99.41% # Reads before turning the bus around for writes
system.mem_ctrls.rdPerTurnAround::256-287            2      0.15%     99.56% # Reads before turning the bus around for writes
system.mem_ctrls.rdPerTurnAround::352-383            1      0.07%     99.63% # Reads before turning the bus around for writes
system.mem_ctrls.rdPerTurnAround::448-479            2      0.15%     99.78% # Reads before turning the bus around for writes
system.mem_ctrls.rdPerTurnAround::544-575            1      0.07%     99.85% # Reads before turning the bus around for writes
system.mem_ctrls.rdPerTurnAround::992-1023            2      0.15%    100.00% # Reads before turning the bus around for writes
system.mem_ctrls.rdPerTurnAround::total          1349                       # Reads before turning the bus around for writes
system.mem_ctrls.wrPerTurnAround::samples         1349                       # Writes before turning the bus around for reads
system.mem_ctrls.wrPerTurnAround::mean      16.338769                       # Writes before turning the bus around for reads
system.mem_ctrls.wrPerTurnAround::gmean     16.320999                       # Writes before turning the bus around for reads
system.mem_ctrls.wrPerTurnAround::stdev      0.787600                       # Writes before turning the bus around for reads
system.mem_ctrls.wrPerTurnAround::16             1122     83.17%     83.17% # Writes before turning the bus around for reads
system.mem_ctrls.wrPerTurnAround::17               27      2.00%     85.17% # Writes before turning the bus around for reads
system.mem_ctrls.wrPerTurnAround::18              176     13.05%     98.22% # Writes before turning the bus around for reads
system.mem_ctrls.wrPerTurnAround::19               19      1.41%     99.63% # Writes before turning the bus around for reads
system.mem_ctrls.wrPerTurnAround::20                4      0.30%     99.93% # Writes before turning the bus around for reads
system.mem_ctrls.wrPerTurnAround::21                1      0.07%    100.00% # Writes before turning the bus around for reads
system.mem_ctrls.wrPerTurnAround::total          1349                       # Writes before turning the bus around for reads
system.mem_ctrls.bytesReadDRAM                4338368                       # Total number of bytes read from DRAM
system.mem_ctrls.bytesReadWrQ                  179328                       # Total number of bytes read from write queue
system.mem_ctrls.bytesWritten                 1410624                       # Total number of bytes written to DRAM
system.mem_ctrls.bytesReadSys                 4517696                       # Total read bytes from the system interface side
system.mem_ctrls.bytesWrittenSys              1541184                       # Total written bytes from the system interface side
system.mem_ctrls.avgRdBW                       310.18                       # Average DRAM read bandwidth in MiByte/s
system.mem_ctrls.avgWrBW                       100.86                       # Average achieved write bandwidth in MiByte/s
system.mem_ctrls.avgRdBWSys                    323.00                       # Average system read bandwidth in MiByte/s
system.mem_ctrls.avgWrBWSys                    110.19                       # Average system write bandwidth in MiByte/s
system.mem_ctrls.peakBW                      12800.00                       # Theoretical peak bandwidth in MiByte/s
system.mem_ctrls.busUtil                         3.21                       # Data bus utilization in percentage
system.mem_ctrls.busUtilRead                     2.42                       # Data bus utilization in percentage for reads
system.mem_ctrls.busUtilWrite                    0.79                       # Data bus utilization in percentage for writes
system.mem_ctrls.totGap                   13985898000                       # Total gap between requests
system.mem_ctrls.avgGap                     147733.16                       # Average gap between requests
system.mem_ctrls.masterReadBytes::.cpu0.inst      1704384                       # Per-master bytes read from memory
system.mem_ctrls.masterReadBytes::.cpu0.data      1537344                       # Per-master bytes read from memory
system.mem_ctrls.masterReadBytes::.cpu1.inst       134400                       # Per-master bytes read from memory
system.mem_ctrls.masterReadBytes::.cpu1.data       962240                       # Per-master bytes read from memory
system.mem_ctrls.masterWriteBytes::.writebacks      1410624                       # Per-master bytes write to memory
system.mem_ctrls.masterReadRate::.cpu0.inst 121858763.980616375804                       # Per-master bytes read from memory rate (Bytes/sec)
system.mem_ctrls.masterReadRate::.cpu0.data 109915863.827058166265                       # Per-master bytes read from memory rate (Bytes/sec)
system.mem_ctrls.masterReadRate::.cpu1.inst 9609230.008610054851                       # Per-master bytes read from memory rate (Bytes/sec)
system.mem_ctrls.masterReadRate::.cpu1.data 68797511.037834376097                       # Per-master bytes read from memory rate (Bytes/sec)
system.mem_ctrls.masterWriteRate::.writebacks 100855732.676082968712                       # Per-master bytes write to memory rate (Bytes/sec)
system.mem_ctrls.masterReadAccesses::.cpu0.inst        26631                       # Per-master read serviced memory accesses
system.mem_ctrls.masterReadAccesses::.cpu0.data        26764                       # Per-master read serviced memory accesses
system.mem_ctrls.masterReadAccesses::.cpu1.inst         2100                       # Per-master read serviced memory accesses
system.mem_ctrls.masterReadAccesses::.cpu1.data        15094                       # Per-master read serviced memory accesses
system.mem_ctrls.masterWriteAccesses::.writebacks        24081                       # Per-master write serviced memory accesses
system.mem_ctrls.masterReadTotalLat::.cpu0.inst    783350250                       # Per-master read total memory access latency
system.mem_ctrls.masterReadTotalLat::.cpu0.data    747390500                       # Per-master read total memory access latency
system.mem_ctrls.masterReadTotalLat::.cpu1.inst     60962250                       # Per-master read total memory access latency
system.mem_ctrls.masterReadTotalLat::.cpu1.data    478293250                       # Per-master read total memory access latency
system.mem_ctrls.masterWriteTotalLat::.writebacks 341356477500                       # Per-master write total memory access latency
system.mem_ctrls.masterReadAvgLat::.cpu0.inst     29414.98                       # Per-master read average memory access latency
system.mem_ctrls.masterReadAvgLat::.cpu0.data     27925.22                       # Per-master read average memory access latency
system.mem_ctrls.masterReadAvgLat::.cpu1.inst     29029.64                       # Per-master read average memory access latency
system.mem_ctrls.masterReadAvgLat::.cpu1.data     31687.64                       # Per-master read average memory access latency
system.mem_ctrls.masterWriteAvgLat::.writebacks  14175344.77                       # Per-master write average memory access latency
system.mem_ctrls.pageHitRate                    73.64                       # Row buffer hit rate, read and write combined
system.mem_ctrls.rank1.actEnergy             71471400                       # Energy for activate commands per rank (pJ)
system.mem_ctrls.rank1.preEnergy             37980360                       # Energy for precharge commands per rank (pJ)
system.mem_ctrls.rank1.readEnergy           202297620                       # Energy for read commands per rank (pJ)
system.mem_ctrls.rank1.writeEnergy           57874140                       # Energy for write commands per rank (pJ)
system.mem_ctrls.rank1.refreshEnergy     1103893440.000000                       # Energy for refresh commands per rank (pJ)
system.mem_ctrls.rank1.actBackEnergy       5723942280                       # Energy for active background per rank (pJ)
system.mem_ctrls.rank1.preBackEnergy        550674240                       # Energy for precharge background per rank (pJ)
system.mem_ctrls.rank1.actPowerDownEnergy            0                       # Energy for active power-down per rank (pJ)
system.mem_ctrls.rank1.prePowerDownEnergy            0                       # Energy for precharge power-down per rank (pJ)
system.mem_ctrls.rank1.selfRefreshEnergy            0                       # Energy for self refresh per rank (pJ)
system.mem_ctrls.rank1.totalEnergy         7748133480                       # Total energy per rank (pJ)
system.mem_ctrls.rank1.averagePower        553.970214                       # Core power per rank (mW)
system.mem_ctrls.rank1.totalIdleTime                0                       # Total Idle time Per DRAM Rank
system.mem_ctrls.rank1.memoryStateTime::IDLE   1382875750                       # Time in different power states
system.mem_ctrls.rank1.memoryStateTime::REF    466960000                       # Time in different power states
system.mem_ctrls.rank1.memoryStateTime::SREF            0                       # Time in different power states
system.mem_ctrls.rank1.memoryStateTime::PRE_PDN            0                       # Time in different power states
system.mem_ctrls.rank1.memoryStateTime::ACT  12136716750                       # Time in different power states
system.mem_ctrls.rank1.memoryStateTime::ACT_PDN            0                       # Time in different power states
system.mem_ctrls.rank0.actEnergy             97496700                       # Energy for activate commands per rank (pJ)
system.mem_ctrls.rank0.preEnergy             51813135                       # Energy for precharge commands per rank (pJ)
system.mem_ctrls.rank0.readEnergy           281701560                       # Energy for read commands per rank (pJ)
system.mem_ctrls.rank0.writeEnergy           57179880                       # Energy for write commands per rank (pJ)
system.mem_ctrls.rank0.refreshEnergy     1103893440.000000                       # Energy for refresh commands per rank (pJ)
system.mem_ctrls.rank0.actBackEnergy       5693996190                       # Energy for active background per rank (pJ)
system.mem_ctrls.rank0.preBackEnergy        575892000                       # Energy for precharge background per rank (pJ)
system.mem_ctrls.rank0.actPowerDownEnergy            0                       # Energy for active power-down per rank (pJ)
system.mem_ctrls.rank0.prePowerDownEnergy            0                       # Energy for precharge power-down per rank (pJ)
system.mem_ctrls.rank0.selfRefreshEnergy            0                       # Energy for self refresh per rank (pJ)
system.mem_ctrls.rank0.totalEnergy         7861972905                       # Total energy per rank (pJ)
system.mem_ctrls.rank0.averagePower        562.109419                       # Core power per rank (mW)
system.mem_ctrls.rank0.totalIdleTime                0                       # Total Idle time Per DRAM Rank
system.mem_ctrls.rank0.memoryStateTime::IDLE   1444329500                       # Time in different power states
system.mem_ctrls.rank0.memoryStateTime::REF    466960000                       # Time in different power states
system.mem_ctrls.rank0.memoryStateTime::SREF            0                       # Time in different power states
system.mem_ctrls.rank0.memoryStateTime::PRE_PDN            0                       # Time in different power states
system.mem_ctrls.rank0.memoryStateTime::ACT  12075263000                       # Time in different power states
system.mem_ctrls.rank0.memoryStateTime::ACT_PDN            0                       # Time in different power states
system.mem_ctrls.power_state.pwrStateResidencyTicks::UNDEFINED  13986552500                       # Cumulative time (in ticks) in various power states
system.cpu_clk_domain.clock                       500                       # Clock period in ticks
system.tol2bus.trans_dist::ReadResp            924590                       # Transaction distribution
system.tol2bus.trans_dist::WritebackDirty       231475                       # Transaction distribution
system.tol2bus.trans_dist::WritebackClean       595419                       # Transaction distribution
system.tol2bus.trans_dist::CleanEvict          290340                       # Transaction distribution
system.tol2bus.trans_dist::ReadExReq           123034                       # Transaction distribution
system.tol2bus.trans_dist::ReadExResp          123034                       # Transaction distribution
system.tol2bus.trans_dist::ReadCleanReq        595451                       # Transaction distribution
system.tol2bus.trans_dist::ReadSharedReq       329139                       # Transaction distribution
system.tol2bus.pkt_count_system.cpu0.icache.mem_side::system.l2.cpu_side      1744766                       # Packet count per connected master and slave (bytes)
system.tol2bus.pkt_count_system.cpu0.dcache.mem_side::system.l2.cpu_side       692393                       # Packet count per connected master and slave (bytes)
system.tol2bus.pkt_count_system.cpu1.icache.mem_side::system.l2.cpu_side        41555                       # Packet count per connected master and slave (bytes)
system.tol2bus.pkt_count_system.cpu1.dcache.mem_side::system.l2.cpu_side       664094                       # Packet count per connected master and slave (bytes)
system.tol2bus.pkt_count::total               3142808                       # Packet count per connected master and slave (bytes)
system.tol2bus.pkt_size_system.cpu0.icache.mem_side::system.l2.cpu_side     74443008                       # Cumulative packet size per connected master and slave (bytes)
system.tol2bus.pkt_size_system.cpu0.dcache.mem_side::system.l2.cpu_side     24150656                       # Cumulative packet size per connected master and slave (bytes)
system.tol2bus.pkt_size_system.cpu1.icache.mem_side::system.l2.cpu_side      1772672                       # Cumulative packet size per connected master and slave (bytes)
system.tol2bus.pkt_size_system.cpu1.dcache.mem_side::system.l2.cpu_side     18061632                       # Cumulative packet size per connected master and slave (bytes)
system.tol2bus.pkt_size::total              118427968                       # Cumulative packet size per connected master and slave (bytes)
system.tol2bus.snoops                           69674                       # Total snoops (count)
system.tol2bus.snoopTraffic                   1541184                       # Total snoop traffic (bytes)
system.tol2bus.snoop_fanout::samples          1117298                       # Request fanout histogram
system.tol2bus.snoop_fanout::mean            0.000105                       # Request fanout histogram
system.tol2bus.snoop_fanout::stdev           0.010233                       # Request fanout histogram
system.tol2bus.snoop_fanout::underflows             0      0.00%      0.00% # Request fanout histogram
system.tol2bus.snoop_fanout::0                1117181     99.99%     99.99% # Request fanout histogram
system.tol2bus.snoop_fanout::1                    117      0.01%    100.00% # Request fanout histogram
system.tol2bus.snoop_fanout::2                      0      0.00%    100.00% # Request fanout histogram
system.tol2bus.snoop_fanout::3                      0      0.00%    100.00% # Request fanout histogram
system.tol2bus.snoop_fanout::4                      0      0.00%    100.00% # Request fanout histogram
system.tol2bus.snoop_fanout::5                      0      0.00%    100.00% # Request fanout histogram
system.tol2bus.snoop_fanout::6                      0      0.00%    100.00% # Request fanout histogram
system.tol2bus.snoop_fanout::7                      0      0.00%    100.00% # Request fanout histogram
system.tol2bus.snoop_fanout::8                      0      0.00%    100.00% # Request fanout histogram
system.tol2bus.snoop_fanout::overflows              0      0.00%    100.00% # Request fanout histogram
system.tol2bus.snoop_fanout::min_value              0                       # Request fanout histogram
system.tol2bus.snoop_fanout::max_value              1                       # Request fanout histogram
system.tol2bus.snoop_fanout::total            1117298                       # Request fanout histogram
system.tol2bus.reqLayer0.occupancy         1850405000                       # Layer occupancy (ticks)
system.tol2bus.reqLayer0.utilization             13.2                       # Layer utilization (%)
system.tol2bus.respLayer5.occupancy         332331446                       # Layer occupancy (ticks)
system.tol2bus.respLayer5.utilization             2.4                       # Layer utilization (%)
system.tol2bus.respLayer4.occupancy          20806957                       # Layer occupancy (ticks)
system.tol2bus.respLayer4.utilization             0.1                       # Layer utilization (%)
system.tol2bus.respLayer1.occupancy         346348711                       # Layer occupancy (ticks)
system.tol2bus.respLayer1.utilization             2.5                       # Layer utilization (%)
system.tol2bus.respLayer0.occupancy         872579622                       # Layer occupancy (ticks)
system.tol2bus.respLayer0.utilization             6.2                       # Layer utilization (%)
system.tol2bus.power_state.pwrStateResidencyTicks::UNDEFINED  13986552500                       # Cumulative time (in ticks) in various power states

---------- End Simulation Statistics   ----------
