
---------- Begin Simulation Statistics ----------
final_tick                                57637769500                       # Number of ticks from beginning of simulation (restored from checkpoints and never reset)
host_inst_rate                                 198333                       # Simulator instruction rate (inst/s)
host_mem_usage                                4491040                       # Number of bytes of host memory used
host_op_rate                                   346739                       # Simulator op (including micro ops) rate (op/s)
host_seconds                                    95.63                       # Real time elapsed on the host
host_tick_rate                              602738444                       # Simulator tick rate (ticks/s)
sim_freq                                 1000000000000                       # Frequency of simulated ticks
sim_insts                                    18965909                       # Number of instructions simulated
sim_ops                                      33157450                       # Number of ops (including micro ops) simulated
sim_seconds                                  0.057638                       # Number of seconds simulated
sim_ticks                                 57637769500                       # Number of ticks simulated
system.cpu0.branchPred.BTBCorrect                   0                       # Number of correct BTB predictions (this stat may not work properly.
system.cpu0.branchPred.BTBHitPct                  nan                       # BTB Hit Percentage
system.cpu0.branchPred.BTBHits                      0                       # Number of BTB hits
system.cpu0.branchPred.BTBLookups                   0                       # Number of BTB lookups
system.cpu0.branchPred.RASInCorrect                 0                       # Number of incorrect RAS predictions.
system.cpu0.branchPred.condIncorrect               40                       # Number of conditional branches incorrect
system.cpu0.branchPred.condPredicted               87                       # Number of conditional branches predicted
system.cpu0.branchPred.indirectHits                 0                       # Number of indirect target hits.
system.cpu0.branchPred.indirectLookups             25                       # Number of indirect predictor lookups.
system.cpu0.branchPred.indirectMisses              25                       # Number of indirect misses.
system.cpu0.branchPred.lookups                     87                       # Number of BP lookups
system.cpu0.branchPred.usedRAS                      0                       # Number of times the RAS was used to get a target.
system.cpu0.branchPredindirectMispredicted           10                       # Number of mispredicted indirect branches.
system.cpu0.committedInsts                   10000001                       # Number of instructions committed
system.cpu0.committedOps                     14509368                       # Number of ops (including micro ops) committed
system.cpu0.cpi                             11.527553                       # CPI: cycles per instruction
system.cpu0.discardedOps                      1920440                       # Number of ops (including micro ops) which were discarded before commit
system.cpu0.dtb.rdAccesses                    1871003                       # TLB accesses on read requests
system.cpu0.dtb.rdMisses                       365556                       # TLB misses on read requests
system.cpu0.dtb.wrAccesses                    7295813                       # TLB accesses on write requests
system.cpu0.dtb.wrMisses                        28458                       # TLB misses on write requests
system.cpu0.fetch2.amo_instructions                 0                       # Number of memory atomic instructions successfully decoded
system.cpu0.fetch2.fp_instructions                  0                       # Number of floating point instructions successfully decoded
system.cpu0.fetch2.int_instructions                 8                       # Number of integer instructions successfully decoded
system.cpu0.fetch2.load_instructions                0                       # Number of memory load instructions successfully decoded
system.cpu0.fetch2.store_instructions               0                       # Number of memory store instructions successfully decoded
system.cpu0.fetch2.vec_instructions                 0                       # Number of SIMD instructions successfully decoded
system.cpu0.idleCycles                       95305569                       # Total number of cycles that the object has spent stopped
system.cpu0.ipc                              0.086749                       # IPC: instructions per cycle
system.cpu0.itb.rdAccesses                          0                       # TLB accesses on read requests
system.cpu0.itb.rdMisses                            0                       # TLB misses on read requests
system.cpu0.itb.wrAccesses                    2313321                       # TLB accesses on write requests
system.cpu0.itb.wrMisses                          266                       # TLB misses on write requests
system.cpu0.numCycles                       115275539                       # number of cpu cycles simulated
system.cpu0.numFetchSuspends                        0                       # Number of times Execute suspended instruction fetching
system.cpu0.numWorkItemsCompleted                   0                       # number of work items this cpu completed
system.cpu0.numWorkItemsStarted                     0                       # number of work items this cpu started
system.cpu0.op_class_0::No_OpClass               1997      0.01%      0.01% # Class of committed instruction
system.cpu0.op_class_0::IntAlu                4979363     34.32%     34.33% # Class of committed instruction
system.cpu0.op_class_0::IntMult                    36      0.00%     34.33% # Class of committed instruction
system.cpu0.op_class_0::IntDiv                   1447      0.01%     34.34% # Class of committed instruction
system.cpu0.op_class_0::FloatAdd              1090392      7.52%     41.86% # Class of committed instruction
system.cpu0.op_class_0::FloatCmp                    0      0.00%     41.86% # Class of committed instruction
system.cpu0.op_class_0::FloatCvt                  112      0.00%     41.86% # Class of committed instruction
system.cpu0.op_class_0::FloatMult                   0      0.00%     41.86% # Class of committed instruction
system.cpu0.op_class_0::FloatMultAcc                0      0.00%     41.86% # Class of committed instruction
system.cpu0.op_class_0::FloatDiv                    0      0.00%     41.86% # Class of committed instruction
system.cpu0.op_class_0::FloatMisc                   0      0.00%     41.86% # Class of committed instruction
system.cpu0.op_class_0::FloatSqrt                   0      0.00%     41.86% # Class of committed instruction
system.cpu0.op_class_0::SimdAdd                  1140      0.01%     41.87% # Class of committed instruction
system.cpu0.op_class_0::SimdAddAcc                  0      0.00%     41.87% # Class of committed instruction
system.cpu0.op_class_0::SimdAlu                  1367      0.01%     41.88% # Class of committed instruction
system.cpu0.op_class_0::SimdCmp                    12      0.00%     41.88% # Class of committed instruction
system.cpu0.op_class_0::SimdCvt                  1866      0.01%     41.89% # Class of committed instruction
system.cpu0.op_class_0::SimdMisc                 1287      0.01%     41.90% # Class of committed instruction
system.cpu0.op_class_0::SimdMult                    0      0.00%     41.90% # Class of committed instruction
system.cpu0.op_class_0::SimdMultAcc                 0      0.00%     41.90% # Class of committed instruction
system.cpu0.op_class_0::SimdShift                 426      0.00%     41.90% # Class of committed instruction
system.cpu0.op_class_0::SimdShiftAcc                0      0.00%     41.90% # Class of committed instruction
system.cpu0.op_class_0::SimdDiv                     0      0.00%     41.90% # Class of committed instruction
system.cpu0.op_class_0::SimdSqrt                    0      0.00%     41.90% # Class of committed instruction
system.cpu0.op_class_0::SimdFloatAdd                0      0.00%     41.90% # Class of committed instruction
system.cpu0.op_class_0::SimdFloatAlu                0      0.00%     41.90% # Class of committed instruction
system.cpu0.op_class_0::SimdFloatCmp                0      0.00%     41.90% # Class of committed instruction
system.cpu0.op_class_0::SimdFloatCvt                2      0.00%     41.90% # Class of committed instruction
system.cpu0.op_class_0::SimdFloatDiv                0      0.00%     41.90% # Class of committed instruction
system.cpu0.op_class_0::SimdFloatMisc               0      0.00%     41.90% # Class of committed instruction
system.cpu0.op_class_0::SimdFloatMult               0      0.00%     41.90% # Class of committed instruction
system.cpu0.op_class_0::SimdFloatMultAcc            0      0.00%     41.90% # Class of committed instruction
system.cpu0.op_class_0::SimdFloatSqrt               0      0.00%     41.90% # Class of committed instruction
system.cpu0.op_class_0::SimdReduceAdd               0      0.00%     41.90% # Class of committed instruction
system.cpu0.op_class_0::SimdReduceAlu               0      0.00%     41.90% # Class of committed instruction
system.cpu0.op_class_0::SimdReduceCmp               0      0.00%     41.90% # Class of committed instruction
system.cpu0.op_class_0::SimdFloatReduceAdd            0      0.00%     41.90% # Class of committed instruction
system.cpu0.op_class_0::SimdFloatReduceCmp            0      0.00%     41.90% # Class of committed instruction
system.cpu0.op_class_0::SimdAes                     0      0.00%     41.90% # Class of committed instruction
system.cpu0.op_class_0::SimdAesMix                  0      0.00%     41.90% # Class of committed instruction
system.cpu0.op_class_0::SimdSha1Hash                0      0.00%     41.90% # Class of committed instruction
system.cpu0.op_class_0::SimdSha1Hash2               0      0.00%     41.90% # Class of committed instruction
system.cpu0.op_class_0::SimdSha256Hash              0      0.00%     41.90% # Class of committed instruction
system.cpu0.op_class_0::SimdSha256Hash2             0      0.00%     41.90% # Class of committed instruction
system.cpu0.op_class_0::SimdShaSigma2               0      0.00%     41.90% # Class of committed instruction
system.cpu0.op_class_0::SimdShaSigma3               0      0.00%     41.90% # Class of committed instruction
system.cpu0.op_class_0::SimdPredAlu                 0      0.00%     41.90% # Class of committed instruction
system.cpu0.op_class_0::MemRead                 42409      0.29%     42.19% # Class of committed instruction
system.cpu0.op_class_0::MemWrite               389289      2.68%     44.88% # Class of committed instruction
system.cpu0.op_class_0::FloatMemRead          1092474      7.53%     52.40% # Class of committed instruction
system.cpu0.op_class_0::FloatMemWrite         6905749     47.60%    100.00% # Class of committed instruction
system.cpu0.op_class_0::IprAccess                   0      0.00%    100.00% # Class of committed instruction
system.cpu0.op_class_0::InstPrefetch                0      0.00%    100.00% # Class of committed instruction
system.cpu0.op_class_0::total                14509368                       # Class of committed instruction
system.cpu0.tickCycles                       19969970                       # Number of cycles that the object actually ticked
system.cpu0.workload.numSyscalls                   40                       # Number of system calls
system.cpu1.branchPred.BTBCorrect                   0                       # Number of correct BTB predictions (this stat may not work properly.
system.cpu1.branchPred.BTBHitPct                  nan                       # BTB Hit Percentage
system.cpu1.branchPred.BTBHits                      0                       # Number of BTB hits
system.cpu1.branchPred.BTBLookups                   0                       # Number of BTB lookups
system.cpu1.branchPred.RASInCorrect                 0                       # Number of incorrect RAS predictions.
system.cpu1.branchPred.condIncorrect               90                       # Number of conditional branches incorrect
system.cpu1.branchPred.condPredicted              283                       # Number of conditional branches predicted
system.cpu1.branchPred.indirectHits                13                       # Number of indirect target hits.
system.cpu1.branchPred.indirectLookups            100                       # Number of indirect predictor lookups.
system.cpu1.branchPred.indirectMisses              87                       # Number of indirect misses.
system.cpu1.branchPred.lookups                    283                       # Number of BP lookups
system.cpu1.branchPred.usedRAS                      0                       # Number of times the RAS was used to get a target.
system.cpu1.branchPredindirectMispredicted           66                       # Number of mispredicted indirect branches.
system.cpu1.committedInsts                    8965908                       # Number of instructions committed
system.cpu1.committedOps                     18648082                       # Number of ops (including micro ops) committed
system.cpu1.cpi                             12.857096                       # CPI: cycles per instruction
system.cpu1.discardedOps                      5023281                       # Number of ops (including micro ops) which were discarded before commit
system.cpu1.dtb.rdAccesses                    2203924                       # TLB accesses on read requests
system.cpu1.dtb.rdMisses                        31157                       # TLB misses on read requests
system.cpu1.dtb.wrAccesses                    1329741                       # TLB accesses on write requests
system.cpu1.dtb.wrMisses                          527                       # TLB misses on write requests
system.cpu1.fetch2.amo_instructions                 0                       # Number of memory atomic instructions successfully decoded
system.cpu1.fetch2.fp_instructions                  0                       # Number of floating point instructions successfully decoded
system.cpu1.fetch2.int_instructions                29                       # Number of integer instructions successfully decoded
system.cpu1.fetch2.load_instructions                0                       # Number of memory load instructions successfully decoded
system.cpu1.fetch2.store_instructions               0                       # Number of memory store instructions successfully decoded
system.cpu1.fetch2.vec_instructions                 0                       # Number of SIMD instructions successfully decoded
system.cpu1.idleCycles                       79259008                       # Total number of cycles that the object has spent stopped
system.cpu1.ipc                              0.077778                       # IPC: instructions per cycle
system.cpu1.itb.rdAccesses                          0                       # TLB accesses on read requests
system.cpu1.itb.rdMisses                            0                       # TLB misses on read requests
system.cpu1.itb.wrAccesses                    4728007                       # TLB accesses on write requests
system.cpu1.itb.wrMisses                          622                       # TLB misses on write requests
system.cpu1.numCycles                       115275537                       # number of cpu cycles simulated
system.cpu1.numFetchSuspends                        0                       # Number of times Execute suspended instruction fetching
system.cpu1.numWorkItemsCompleted                   0                       # number of work items this cpu completed
system.cpu1.numWorkItemsStarted                     0                       # number of work items this cpu started
system.cpu1.op_class_0::No_OpClass             595629      3.19%      3.19% # Class of committed instruction
system.cpu1.op_class_0::IntAlu               14508218     77.80%     80.99% # Class of committed instruction
system.cpu1.op_class_0::IntMult                  1930      0.01%     81.00% # Class of committed instruction
system.cpu1.op_class_0::IntDiv                 141161      0.76%     81.76% # Class of committed instruction
system.cpu1.op_class_0::FloatAdd                22105      0.12%     81.88% # Class of committed instruction
system.cpu1.op_class_0::FloatCmp                    0      0.00%     81.88% # Class of committed instruction
system.cpu1.op_class_0::FloatCvt                 2096      0.01%     81.89% # Class of committed instruction
system.cpu1.op_class_0::FloatMult                   0      0.00%     81.89% # Class of committed instruction
system.cpu1.op_class_0::FloatMultAcc                0      0.00%     81.89% # Class of committed instruction
system.cpu1.op_class_0::FloatDiv                    0      0.00%     81.89% # Class of committed instruction
system.cpu1.op_class_0::FloatMisc                   0      0.00%     81.89% # Class of committed instruction
system.cpu1.op_class_0::FloatSqrt                   0      0.00%     81.89% # Class of committed instruction
system.cpu1.op_class_0::SimdAdd                 21932      0.12%     82.01% # Class of committed instruction
system.cpu1.op_class_0::SimdAddAcc                  0      0.00%     82.01% # Class of committed instruction
system.cpu1.op_class_0::SimdAlu                 76073      0.41%     82.42% # Class of committed instruction
system.cpu1.op_class_0::SimdCmp                  5748      0.03%     82.45% # Class of committed instruction
system.cpu1.op_class_0::SimdCvt                 82438      0.44%     82.89% # Class of committed instruction
system.cpu1.op_class_0::SimdMisc                77440      0.42%     83.30% # Class of committed instruction
system.cpu1.op_class_0::SimdMult                    0      0.00%     83.30% # Class of committed instruction
system.cpu1.op_class_0::SimdMultAcc                 0      0.00%     83.30% # Class of committed instruction
system.cpu1.op_class_0::SimdShift                5414      0.03%     83.33% # Class of committed instruction
system.cpu1.op_class_0::SimdShiftAcc                0      0.00%     83.33% # Class of committed instruction
system.cpu1.op_class_0::SimdDiv                     0      0.00%     83.33% # Class of committed instruction
system.cpu1.op_class_0::SimdSqrt                    0      0.00%     83.33% # Class of committed instruction
system.cpu1.op_class_0::SimdFloatAdd             1367      0.01%     83.34% # Class of committed instruction
system.cpu1.op_class_0::SimdFloatAlu                0      0.00%     83.34% # Class of committed instruction
system.cpu1.op_class_0::SimdFloatCmp                0      0.00%     83.34% # Class of committed instruction
system.cpu1.op_class_0::SimdFloatCvt             7249      0.04%     83.38% # Class of committed instruction
system.cpu1.op_class_0::SimdFloatDiv                0      0.00%     83.38% # Class of committed instruction
system.cpu1.op_class_0::SimdFloatMisc               0      0.00%     83.38% # Class of committed instruction
system.cpu1.op_class_0::SimdFloatMult              82      0.00%     83.38% # Class of committed instruction
system.cpu1.op_class_0::SimdFloatMultAcc            0      0.00%     83.38% # Class of committed instruction
system.cpu1.op_class_0::SimdFloatSqrt               0      0.00%     83.38% # Class of committed instruction
system.cpu1.op_class_0::SimdReduceAdd               0      0.00%     83.38% # Class of committed instruction
system.cpu1.op_class_0::SimdReduceAlu               0      0.00%     83.38% # Class of committed instruction
system.cpu1.op_class_0::SimdReduceCmp               0      0.00%     83.38% # Class of committed instruction
system.cpu1.op_class_0::SimdFloatReduceAdd            0      0.00%     83.38% # Class of committed instruction
system.cpu1.op_class_0::SimdFloatReduceCmp            0      0.00%     83.38% # Class of committed instruction
system.cpu1.op_class_0::SimdAes                     0      0.00%     83.38% # Class of committed instruction
system.cpu1.op_class_0::SimdAesMix                  0      0.00%     83.38% # Class of committed instruction
system.cpu1.op_class_0::SimdSha1Hash                0      0.00%     83.38% # Class of committed instruction
system.cpu1.op_class_0::SimdSha1Hash2               0      0.00%     83.38% # Class of committed instruction
system.cpu1.op_class_0::SimdSha256Hash              0      0.00%     83.38% # Class of committed instruction
system.cpu1.op_class_0::SimdSha256Hash2             0      0.00%     83.38% # Class of committed instruction
system.cpu1.op_class_0::SimdShaSigma2               0      0.00%     83.38% # Class of committed instruction
system.cpu1.op_class_0::SimdShaSigma3               0      0.00%     83.38% # Class of committed instruction
system.cpu1.op_class_0::SimdPredAlu                 0      0.00%     83.38% # Class of committed instruction
system.cpu1.op_class_0::MemRead               1700991      9.12%     92.50% # Class of committed instruction
system.cpu1.op_class_0::MemWrite              1214015      6.51%     99.01% # Class of committed instruction
system.cpu1.op_class_0::FloatMemRead           136781      0.73%     99.75% # Class of committed instruction
system.cpu1.op_class_0::FloatMemWrite           47413      0.25%    100.00% # Class of committed instruction
system.cpu1.op_class_0::IprAccess                   0      0.00%    100.00% # Class of committed instruction
system.cpu1.op_class_0::InstPrefetch                0      0.00%    100.00% # Class of committed instruction
system.cpu1.op_class_0::total                18648082                       # Class of committed instruction
system.cpu1.tickCycles                       36016529                       # Number of cycles that the object actually ticked
system.cpu1.workload.numSyscalls                   90                       # Number of system calls
system.membus.snoop_filter.hit_multi_requests            0                       # Number of requests hitting in the snoop filter with multiple (>1) holders of the requested data.
system.membus.snoop_filter.hit_multi_snoops            0                       # Number of snoops hitting in the snoop filter with multiple (>1) holders of the requested data.
system.membus.snoop_filter.hit_single_requests      1365143                       # Number of requests hitting in the snoop filter with a single holder of the requested data.
system.membus.snoop_filter.hit_single_snoops            0                       # Number of snoops hitting in the snoop filter with a single holder of the requested data.
system.membus.snoop_filter.tot_requests       2731328                       # Total number of requests made to the snoop filter.
system.membus.snoop_filter.tot_snoops               0                       # Total number of snoops made to the snoop filter.
system.tol2bus.snoop_filter.hit_multi_requests            0                       # Number of requests hitting in the snoop filter with multiple (>1) holders of the requested data.
system.tol2bus.snoop_filter.hit_multi_snoops            0                       # Number of snoops hitting in the snoop filter with multiple (>1) holders of the requested data.
system.tol2bus.snoop_filter.hit_single_requests      2277397                       # Number of requests hitting in the snoop filter with a single holder of the requested data.
system.tol2bus.snoop_filter.hit_single_snoops        36451                       # Number of snoops hitting in the snoop filter with a single holder of the requested data.
system.tol2bus.snoop_filter.tot_requests      4554860                       # Total number of requests made to the snoop filter.
system.tol2bus.snoop_filter.tot_snoops          36451                       # Total number of snoops made to the snoop filter.
system.membus.trans_dist::ReadResp             427201                       # Transaction distribution
system.membus.trans_dist::WritebackDirty       947276                       # Transaction distribution
system.membus.trans_dist::CleanEvict           417867                       # Transaction distribution
system.membus.trans_dist::ReadExReq            938984                       # Transaction distribution
system.membus.trans_dist::ReadExResp           938984                       # Transaction distribution
system.membus.trans_dist::ReadSharedReq        427201                       # Transaction distribution
system.membus.pkt_count_system.l2.mem_side::system.mem_ctrls.port      4097513                       # Packet count per connected master and slave (bytes)
system.membus.pkt_count_system.l2.mem_side::total      4097513                       # Packet count per connected master and slave (bytes)
system.membus.pkt_count::total                4097513                       # Packet count per connected master and slave (bytes)
system.membus.pkt_size_system.l2.mem_side::system.mem_ctrls.port    148061504                       # Cumulative packet size per connected master and slave (bytes)
system.membus.pkt_size_system.l2.mem_side::total    148061504                       # Cumulative packet size per connected master and slave (bytes)
system.membus.pkt_size::total               148061504                       # Cumulative packet size per connected master and slave (bytes)
system.membus.snoops                                0                       # Total snoops (count)
system.membus.snoopTraffic                          0                       # Total snoop traffic (bytes)
system.membus.snoop_fanout::samples           1366185                       # Request fanout histogram
system.membus.snoop_fanout::mean                    0                       # Request fanout histogram
system.membus.snoop_fanout::stdev                   0                       # Request fanout histogram
system.membus.snoop_fanout::underflows              0      0.00%      0.00% # Request fanout histogram
system.membus.snoop_fanout::0                 1366185    100.00%    100.00% # Request fanout histogram
system.membus.snoop_fanout::1                       0      0.00%    100.00% # Request fanout histogram
system.membus.snoop_fanout::overflows               0      0.00%    100.00% # Request fanout histogram
system.membus.snoop_fanout::min_value               0                       # Request fanout histogram
system.membus.snoop_fanout::max_value               0                       # Request fanout histogram
system.membus.snoop_fanout::total             1366185                       # Request fanout histogram
system.membus.reqLayer4.occupancy          6942019000                       # Layer occupancy (ticks)
system.membus.reqLayer4.utilization              12.0                       # Layer utilization (%)
system.membus.respLayer1.occupancy         7211913250                       # Layer occupancy (ticks)
system.membus.respLayer1.utilization             12.5                       # Layer utilization (%)
system.membus.power_state.pwrStateResidencyTicks::UNDEFINED  57637769500                       # Cumulative time (in ticks) in various power states
system.voltage_domain.voltage                       1                       # Voltage in Volts
system.clk_domain.clock                          1000                       # Clock period in ticks
system.cpu0.icache.demand_hits::.cpu0.inst      2302157                       # number of demand (read+write) hits
system.cpu0.icache.demand_hits::total         2302157                       # number of demand (read+write) hits
system.cpu0.icache.overall_hits::.cpu0.inst      2302157                       # number of overall hits
system.cpu0.icache.overall_hits::total        2302157                       # number of overall hits
system.cpu0.icache.demand_misses::.cpu0.inst        11097                       # number of demand (read+write) misses
system.cpu0.icache.demand_misses::total         11097                       # number of demand (read+write) misses
system.cpu0.icache.overall_misses::.cpu0.inst        11097                       # number of overall misses
system.cpu0.icache.overall_misses::total        11097                       # number of overall misses
system.cpu0.icache.demand_miss_latency::.cpu0.inst    273861500                       # number of demand (read+write) miss cycles
system.cpu0.icache.demand_miss_latency::total    273861500                       # number of demand (read+write) miss cycles
system.cpu0.icache.overall_miss_latency::.cpu0.inst    273861500                       # number of overall miss cycles
system.cpu0.icache.overall_miss_latency::total    273861500                       # number of overall miss cycles
system.cpu0.icache.demand_accesses::.cpu0.inst      2313254                       # number of demand (read+write) accesses
system.cpu0.icache.demand_accesses::total      2313254                       # number of demand (read+write) accesses
system.cpu0.icache.overall_accesses::.cpu0.inst      2313254                       # number of overall (read+write) accesses
system.cpu0.icache.overall_accesses::total      2313254                       # number of overall (read+write) accesses
system.cpu0.icache.demand_miss_rate::.cpu0.inst     0.004797                       # miss rate for demand accesses
system.cpu0.icache.demand_miss_rate::total     0.004797                       # miss rate for demand accesses
system.cpu0.icache.overall_miss_rate::.cpu0.inst     0.004797                       # miss rate for overall accesses
system.cpu0.icache.overall_miss_rate::total     0.004797                       # miss rate for overall accesses
system.cpu0.icache.demand_avg_miss_latency::.cpu0.inst 24678.877174                       # average overall miss latency
system.cpu0.icache.demand_avg_miss_latency::total 24678.877174                       # average overall miss latency
system.cpu0.icache.overall_avg_miss_latency::.cpu0.inst 24678.877174                       # average overall miss latency
system.cpu0.icache.overall_avg_miss_latency::total 24678.877174                       # average overall miss latency
system.cpu0.icache.blocked_cycles::no_mshrs            0                       # number of cycles access was blocked
system.cpu0.icache.blocked_cycles::no_targets            0                       # number of cycles access was blocked
system.cpu0.icache.blocked::no_mshrs                0                       # number of cycles access was blocked
system.cpu0.icache.blocked::no_targets              0                       # number of cycles access was blocked
system.cpu0.icache.avg_blocked_cycles::no_mshrs          nan                       # average number of cycles each access was blocked
system.cpu0.icache.avg_blocked_cycles::no_targets          nan                       # average number of cycles each access was blocked
system.cpu0.icache.writebacks::.writebacks        11081                       # number of writebacks
system.cpu0.icache.writebacks::total            11081                       # number of writebacks
system.cpu0.icache.demand_mshr_misses::.cpu0.inst        11097                       # number of demand (read+write) MSHR misses
system.cpu0.icache.demand_mshr_misses::total        11097                       # number of demand (read+write) MSHR misses
system.cpu0.icache.overall_mshr_misses::.cpu0.inst        11097                       # number of overall MSHR misses
system.cpu0.icache.overall_mshr_misses::total        11097                       # number of overall MSHR misses
system.cpu0.icache.demand_mshr_miss_latency::.cpu0.inst    262764500                       # number of demand (read+write) MSHR miss cycles
system.cpu0.icache.demand_mshr_miss_latency::total    262764500                       # number of demand (read+write) MSHR miss cycles
system.cpu0.icache.overall_mshr_miss_latency::.cpu0.inst    262764500                       # number of overall MSHR miss cycles
system.cpu0.icache.overall_mshr_miss_latency::total    262764500                       # number of overall MSHR miss cycles
system.cpu0.icache.demand_mshr_miss_rate::.cpu0.inst     0.004797                       # mshr miss rate for demand accesses
system.cpu0.icache.demand_mshr_miss_rate::total     0.004797                       # mshr miss rate for demand accesses
system.cpu0.icache.overall_mshr_miss_rate::.cpu0.inst     0.004797                       # mshr miss rate for overall accesses
system.cpu0.icache.overall_mshr_miss_rate::total     0.004797                       # mshr miss rate for overall accesses
system.cpu0.icache.demand_avg_mshr_miss_latency::.cpu0.inst 23678.877174                       # average overall mshr miss latency
system.cpu0.icache.demand_avg_mshr_miss_latency::total 23678.877174                       # average overall mshr miss latency
system.cpu0.icache.overall_avg_mshr_miss_latency::.cpu0.inst 23678.877174                       # average overall mshr miss latency
system.cpu0.icache.overall_avg_mshr_miss_latency::total 23678.877174                       # average overall mshr miss latency
system.cpu0.icache.replacements                 11081                       # number of replacements
system.cpu0.icache.ReadReq_hits::.cpu0.inst      2302157                       # number of ReadReq hits
system.cpu0.icache.ReadReq_hits::total        2302157                       # number of ReadReq hits
system.cpu0.icache.ReadReq_misses::.cpu0.inst        11097                       # number of ReadReq misses
system.cpu0.icache.ReadReq_misses::total        11097                       # number of ReadReq misses
system.cpu0.icache.ReadReq_miss_latency::.cpu0.inst    273861500                       # number of ReadReq miss cycles
system.cpu0.icache.ReadReq_miss_latency::total    273861500                       # number of ReadReq miss cycles
system.cpu0.icache.ReadReq_accesses::.cpu0.inst      2313254                       # number of ReadReq accesses(hits+misses)
system.cpu0.icache.ReadReq_accesses::total      2313254                       # number of ReadReq accesses(hits+misses)
system.cpu0.icache.ReadReq_miss_rate::.cpu0.inst     0.004797                       # miss rate for ReadReq accesses
system.cpu0.icache.ReadReq_miss_rate::total     0.004797                       # miss rate for ReadReq accesses
system.cpu0.icache.ReadReq_avg_miss_latency::.cpu0.inst 24678.877174                       # average ReadReq miss latency
system.cpu0.icache.ReadReq_avg_miss_latency::total 24678.877174                       # average ReadReq miss latency
system.cpu0.icache.ReadReq_mshr_misses::.cpu0.inst        11097                       # number of ReadReq MSHR misses
system.cpu0.icache.ReadReq_mshr_misses::total        11097                       # number of ReadReq MSHR misses
system.cpu0.icache.ReadReq_mshr_miss_latency::.cpu0.inst    262764500                       # number of ReadReq MSHR miss cycles
system.cpu0.icache.ReadReq_mshr_miss_latency::total    262764500                       # number of ReadReq MSHR miss cycles
system.cpu0.icache.ReadReq_mshr_miss_rate::.cpu0.inst     0.004797                       # mshr miss rate for ReadReq accesses
system.cpu0.icache.ReadReq_mshr_miss_rate::total     0.004797                       # mshr miss rate for ReadReq accesses
system.cpu0.icache.ReadReq_avg_mshr_miss_latency::.cpu0.inst 23678.877174                       # average ReadReq mshr miss latency
system.cpu0.icache.ReadReq_avg_mshr_miss_latency::total 23678.877174                       # average ReadReq mshr miss latency
system.cpu0.icache.power_state.pwrStateResidencyTicks::UNDEFINED  57637769500                       # Cumulative time (in ticks) in various power states
system.cpu0.icache.tags.tagsinuse           15.999763                       # Cycle average of tags in use
system.cpu0.icache.tags.total_refs            2313254                       # Total number of references to valid blocks.
system.cpu0.icache.tags.sampled_refs            11097                       # Sample count of references to valid blocks.
system.cpu0.icache.tags.avg_refs           208.457601                       # Average number of references to valid blocks.
system.cpu0.icache.tags.warmup_cycle            87500                       # Cycle when the warmup percentage was hit.
system.cpu0.icache.tags.occ_blocks::.cpu0.inst    15.999763                       # Average occupied blocks per requestor
system.cpu0.icache.tags.occ_percent::.cpu0.inst     0.999985                       # Average percentage of cache occupancy
system.cpu0.icache.tags.occ_percent::total     0.999985                       # Average percentage of cache occupancy
system.cpu0.icache.tags.occ_task_id_blocks::1024           16                       # Occupied blocks per task id
system.cpu0.icache.tags.age_task_id_blocks_1024::4           16                       # Occupied blocks per task id
system.cpu0.icache.tags.occ_task_id_percent::1024            1                       # Percentage of cache occupancy per task id
system.cpu0.icache.tags.tag_accesses         18517129                       # Number of tag accesses
system.cpu0.icache.tags.data_accesses        18517129                       # Number of data accesses
system.cpu0.icache.tags.power_state.pwrStateResidencyTicks::UNDEFINED  57637769500                       # Cumulative time (in ticks) in various power states
system.cpu0.dtb.walker.power_state.pwrStateResidencyTicks::UNDEFINED  57637769500                       # Cumulative time (in ticks) in various power states
system.cpu0.interrupts.clk_domain.clock          8000                       # Clock period in ticks
system.cpu0.itb_walker_cache.blocked_cycles::no_mshrs            0                       # number of cycles access was blocked
system.cpu0.itb_walker_cache.blocked_cycles::no_targets            0                       # number of cycles access was blocked
system.cpu0.itb_walker_cache.blocked::no_mshrs            0                       # number of cycles access was blocked
system.cpu0.itb_walker_cache.blocked::no_targets            0                       # number of cycles access was blocked
system.cpu0.itb_walker_cache.avg_blocked_cycles::no_mshrs          nan                       # average number of cycles each access was blocked
system.cpu0.itb_walker_cache.avg_blocked_cycles::no_targets          nan                       # average number of cycles each access was blocked
system.cpu0.itb_walker_cache.replacements            0                       # number of replacements
system.cpu0.itb_walker_cache.power_state.pwrStateResidencyTicks::UNDEFINED  57637769500                       # Cumulative time (in ticks) in various power states
system.cpu0.itb_walker_cache.tags.tagsinuse            0                       # Cycle average of tags in use
system.cpu0.itb_walker_cache.tags.total_refs            0                       # Total number of references to valid blocks.
system.cpu0.itb_walker_cache.tags.sampled_refs            0                       # Sample count of references to valid blocks.
system.cpu0.itb_walker_cache.tags.avg_refs          nan                       # Average number of references to valid blocks.
system.cpu0.itb_walker_cache.tags.warmup_cycle            0                       # Cycle when the warmup percentage was hit.
system.cpu0.itb_walker_cache.tags.tag_accesses            0                       # Number of tag accesses
system.cpu0.itb_walker_cache.tags.data_accesses            0                       # Number of data accesses
system.cpu0.itb_walker_cache.tags.power_state.pwrStateResidencyTicks::UNDEFINED  57637769500                       # Cumulative time (in ticks) in various power states
system.cpu0.dtb_walker_cache.blocked_cycles::no_mshrs            0                       # number of cycles access was blocked
system.cpu0.dtb_walker_cache.blocked_cycles::no_targets            0                       # number of cycles access was blocked
system.cpu0.dtb_walker_cache.blocked::no_mshrs            0                       # number of cycles access was blocked
system.cpu0.dtb_walker_cache.blocked::no_targets            0                       # number of cycles access was blocked
system.cpu0.dtb_walker_cache.avg_blocked_cycles::no_mshrs          nan                       # average number of cycles each access was blocked
system.cpu0.dtb_walker_cache.avg_blocked_cycles::no_targets          nan                       # average number of cycles each access was blocked
system.cpu0.dtb_walker_cache.replacements            0                       # number of replacements
system.cpu0.dtb_walker_cache.power_state.pwrStateResidencyTicks::UNDEFINED  57637769500                       # Cumulative time (in ticks) in various power states
system.cpu0.dtb_walker_cache.tags.tagsinuse            0                       # Cycle average of tags in use
system.cpu0.dtb_walker_cache.tags.total_refs            0                       # Total number of references to valid blocks.
system.cpu0.dtb_walker_cache.tags.sampled_refs            0                       # Sample count of references to valid blocks.
system.cpu0.dtb_walker_cache.tags.avg_refs          nan                       # Average number of references to valid blocks.
system.cpu0.dtb_walker_cache.tags.warmup_cycle            0                       # Cycle when the warmup percentage was hit.
system.cpu0.dtb_walker_cache.tags.tag_accesses            0                       # Number of tag accesses
system.cpu0.dtb_walker_cache.tags.data_accesses            0                       # Number of data accesses
system.cpu0.dtb_walker_cache.tags.power_state.pwrStateResidencyTicks::UNDEFINED  57637769500                       # Cumulative time (in ticks) in various power states
system.cpu0.dcache.demand_hits::.cpu0.data      7320145                       # number of demand (read+write) hits
system.cpu0.dcache.demand_hits::total         7320145                       # number of demand (read+write) hits
system.cpu0.dcache.overall_hits::.cpu0.data      7320145                       # number of overall hits
system.cpu0.dcache.overall_hits::total        7320145                       # number of overall hits
system.cpu0.dcache.demand_misses::.cpu0.data      1465697                       # number of demand (read+write) misses
system.cpu0.dcache.demand_misses::total       1465697                       # number of demand (read+write) misses
system.cpu0.dcache.overall_misses::.cpu0.data      1465697                       # number of overall misses
system.cpu0.dcache.overall_misses::total      1465697                       # number of overall misses
system.cpu0.dcache.demand_miss_latency::.cpu0.data  98972678500                       # number of demand (read+write) miss cycles
system.cpu0.dcache.demand_miss_latency::total  98972678500                       # number of demand (read+write) miss cycles
system.cpu0.dcache.overall_miss_latency::.cpu0.data  98972678500                       # number of overall miss cycles
system.cpu0.dcache.overall_miss_latency::total  98972678500                       # number of overall miss cycles
system.cpu0.dcache.demand_accesses::.cpu0.data      8785842                       # number of demand (read+write) accesses
system.cpu0.dcache.demand_accesses::total      8785842                       # number of demand (read+write) accesses
system.cpu0.dcache.overall_accesses::.cpu0.data      8785842                       # number of overall (read+write) accesses
system.cpu0.dcache.overall_accesses::total      8785842                       # number of overall (read+write) accesses
system.cpu0.dcache.demand_miss_rate::.cpu0.data     0.166825                       # miss rate for demand accesses
system.cpu0.dcache.demand_miss_rate::total     0.166825                       # miss rate for demand accesses
system.cpu0.dcache.overall_miss_rate::.cpu0.data     0.166825                       # miss rate for overall accesses
system.cpu0.dcache.overall_miss_rate::total     0.166825                       # miss rate for overall accesses
system.cpu0.dcache.demand_avg_miss_latency::.cpu0.data 67526.015609                       # average overall miss latency
system.cpu0.dcache.demand_avg_miss_latency::total 67526.015609                       # average overall miss latency
system.cpu0.dcache.overall_avg_miss_latency::.cpu0.data 67526.015609                       # average overall miss latency
system.cpu0.dcache.overall_avg_miss_latency::total 67526.015609                       # average overall miss latency
system.cpu0.dcache.blocked_cycles::no_mshrs            0                       # number of cycles access was blocked
system.cpu0.dcache.blocked_cycles::no_targets            0                       # number of cycles access was blocked
system.cpu0.dcache.blocked::no_mshrs                0                       # number of cycles access was blocked
system.cpu0.dcache.blocked::no_targets              0                       # number of cycles access was blocked
system.cpu0.dcache.avg_blocked_cycles::no_mshrs          nan                       # average number of cycles each access was blocked
system.cpu0.dcache.avg_blocked_cycles::no_targets          nan                       # average number of cycles each access was blocked
system.cpu0.dcache.writebacks::.writebacks       913465                       # number of writebacks
system.cpu0.dcache.writebacks::total           913465                       # number of writebacks
system.cpu0.dcache.demand_mshr_hits::.cpu0.data       546113                       # number of demand (read+write) MSHR hits
system.cpu0.dcache.demand_mshr_hits::total       546113                       # number of demand (read+write) MSHR hits
system.cpu0.dcache.overall_mshr_hits::.cpu0.data       546113                       # number of overall MSHR hits
system.cpu0.dcache.overall_mshr_hits::total       546113                       # number of overall MSHR hits
system.cpu0.dcache.demand_mshr_misses::.cpu0.data       919584                       # number of demand (read+write) MSHR misses
system.cpu0.dcache.demand_mshr_misses::total       919584                       # number of demand (read+write) MSHR misses
system.cpu0.dcache.overall_mshr_misses::.cpu0.data       919584                       # number of overall MSHR misses
system.cpu0.dcache.overall_mshr_misses::total       919584                       # number of overall MSHR misses
system.cpu0.dcache.demand_mshr_miss_latency::.cpu0.data  78263720000                       # number of demand (read+write) MSHR miss cycles
system.cpu0.dcache.demand_mshr_miss_latency::total  78263720000                       # number of demand (read+write) MSHR miss cycles
system.cpu0.dcache.overall_mshr_miss_latency::.cpu0.data  78263720000                       # number of overall MSHR miss cycles
system.cpu0.dcache.overall_mshr_miss_latency::total  78263720000                       # number of overall MSHR miss cycles
system.cpu0.dcache.demand_mshr_miss_rate::.cpu0.data     0.104667                       # mshr miss rate for demand accesses
system.cpu0.dcache.demand_mshr_miss_rate::total     0.104667                       # mshr miss rate for demand accesses
system.cpu0.dcache.overall_mshr_miss_rate::.cpu0.data     0.104667                       # mshr miss rate for overall accesses
system.cpu0.dcache.overall_mshr_miss_rate::total     0.104667                       # mshr miss rate for overall accesses
system.cpu0.dcache.demand_avg_mshr_miss_latency::.cpu0.data 85107.744371                       # average overall mshr miss latency
system.cpu0.dcache.demand_avg_mshr_miss_latency::total 85107.744371                       # average overall mshr miss latency
system.cpu0.dcache.overall_avg_mshr_miss_latency::.cpu0.data 85107.744371                       # average overall mshr miss latency
system.cpu0.dcache.overall_avg_mshr_miss_latency::total 85107.744371                       # average overall mshr miss latency
system.cpu0.dcache.replacements                919567                       # number of replacements
system.cpu0.dcache.ReadReq_hits::.cpu0.data      1495634                       # number of ReadReq hits
system.cpu0.dcache.ReadReq_hits::total        1495634                       # number of ReadReq hits
system.cpu0.dcache.ReadReq_misses::.cpu0.data         9376                       # number of ReadReq misses
system.cpu0.dcache.ReadReq_misses::total         9376                       # number of ReadReq misses
system.cpu0.dcache.ReadReq_miss_latency::.cpu0.data    330935500                       # number of ReadReq miss cycles
system.cpu0.dcache.ReadReq_miss_latency::total    330935500                       # number of ReadReq miss cycles
system.cpu0.dcache.ReadReq_accesses::.cpu0.data      1505010                       # number of ReadReq accesses(hits+misses)
system.cpu0.dcache.ReadReq_accesses::total      1505010                       # number of ReadReq accesses(hits+misses)
system.cpu0.dcache.ReadReq_miss_rate::.cpu0.data     0.006230                       # miss rate for ReadReq accesses
system.cpu0.dcache.ReadReq_miss_rate::total     0.006230                       # miss rate for ReadReq accesses
system.cpu0.dcache.ReadReq_avg_miss_latency::.cpu0.data 35296.021758                       # average ReadReq miss latency
system.cpu0.dcache.ReadReq_avg_miss_latency::total 35296.021758                       # average ReadReq miss latency
system.cpu0.dcache.ReadReq_mshr_hits::.cpu0.data          332                       # number of ReadReq MSHR hits
system.cpu0.dcache.ReadReq_mshr_hits::total          332                       # number of ReadReq MSHR hits
system.cpu0.dcache.ReadReq_mshr_misses::.cpu0.data         9044                       # number of ReadReq MSHR misses
system.cpu0.dcache.ReadReq_mshr_misses::total         9044                       # number of ReadReq MSHR misses
system.cpu0.dcache.ReadReq_mshr_miss_latency::.cpu0.data    307498000                       # number of ReadReq MSHR miss cycles
system.cpu0.dcache.ReadReq_mshr_miss_latency::total    307498000                       # number of ReadReq MSHR miss cycles
system.cpu0.dcache.ReadReq_mshr_miss_rate::.cpu0.data     0.006009                       # mshr miss rate for ReadReq accesses
system.cpu0.dcache.ReadReq_mshr_miss_rate::total     0.006009                       # mshr miss rate for ReadReq accesses
system.cpu0.dcache.ReadReq_avg_mshr_miss_latency::.cpu0.data 34000.221141                       # average ReadReq mshr miss latency
system.cpu0.dcache.ReadReq_avg_mshr_miss_latency::total 34000.221141                       # average ReadReq mshr miss latency
system.cpu0.dcache.WriteReq_hits::.cpu0.data      5824511                       # number of WriteReq hits
system.cpu0.dcache.WriteReq_hits::total       5824511                       # number of WriteReq hits
system.cpu0.dcache.WriteReq_misses::.cpu0.data      1456321                       # number of WriteReq misses
system.cpu0.dcache.WriteReq_misses::total      1456321                       # number of WriteReq misses
system.cpu0.dcache.WriteReq_miss_latency::.cpu0.data  98641743000                       # number of WriteReq miss cycles
system.cpu0.dcache.WriteReq_miss_latency::total  98641743000                       # number of WriteReq miss cycles
system.cpu0.dcache.WriteReq_accesses::.cpu0.data      7280832                       # number of WriteReq accesses(hits+misses)
system.cpu0.dcache.WriteReq_accesses::total      7280832                       # number of WriteReq accesses(hits+misses)
system.cpu0.dcache.WriteReq_miss_rate::.cpu0.data     0.200021                       # miss rate for WriteReq accesses
system.cpu0.dcache.WriteReq_miss_rate::total     0.200021                       # miss rate for WriteReq accesses
system.cpu0.dcache.WriteReq_avg_miss_latency::.cpu0.data 67733.516855                       # average WriteReq miss latency
system.cpu0.dcache.WriteReq_avg_miss_latency::total 67733.516855                       # average WriteReq miss latency
system.cpu0.dcache.WriteReq_mshr_hits::.cpu0.data       545781                       # number of WriteReq MSHR hits
system.cpu0.dcache.WriteReq_mshr_hits::total       545781                       # number of WriteReq MSHR hits
system.cpu0.dcache.WriteReq_mshr_misses::.cpu0.data       910540                       # number of WriteReq MSHR misses
system.cpu0.dcache.WriteReq_mshr_misses::total       910540                       # number of WriteReq MSHR misses
system.cpu0.dcache.WriteReq_mshr_miss_latency::.cpu0.data  77956222000                       # number of WriteReq MSHR miss cycles
system.cpu0.dcache.WriteReq_mshr_miss_latency::total  77956222000                       # number of WriteReq MSHR miss cycles
system.cpu0.dcache.WriteReq_mshr_miss_rate::.cpu0.data     0.125060                       # mshr miss rate for WriteReq accesses
system.cpu0.dcache.WriteReq_mshr_miss_rate::total     0.125060                       # mshr miss rate for WriteReq accesses
system.cpu0.dcache.WriteReq_avg_mshr_miss_latency::.cpu0.data 85615.373295                       # average WriteReq mshr miss latency
system.cpu0.dcache.WriteReq_avg_mshr_miss_latency::total 85615.373295                       # average WriteReq mshr miss latency
system.cpu0.dcache.power_state.pwrStateResidencyTicks::UNDEFINED  57637769500                       # Cumulative time (in ticks) in various power states
system.cpu0.dcache.tags.tagsinuse           15.999778                       # Cycle average of tags in use
system.cpu0.dcache.tags.total_refs            8239728                       # Total number of references to valid blocks.
system.cpu0.dcache.tags.sampled_refs           919583                       # Sample count of references to valid blocks.
system.cpu0.dcache.tags.avg_refs             8.960287                       # Average number of references to valid blocks.
system.cpu0.dcache.tags.warmup_cycle           178500                       # Cycle when the warmup percentage was hit.
system.cpu0.dcache.tags.occ_blocks::.cpu0.data    15.999778                       # Average occupied blocks per requestor
system.cpu0.dcache.tags.occ_percent::.cpu0.data     0.999986                       # Average percentage of cache occupancy
system.cpu0.dcache.tags.occ_percent::total     0.999986                       # Average percentage of cache occupancy
system.cpu0.dcache.tags.occ_task_id_blocks::1024           16                       # Occupied blocks per task id
system.cpu0.dcache.tags.age_task_id_blocks_1024::0           14                       # Occupied blocks per task id
system.cpu0.dcache.tags.age_task_id_blocks_1024::4            2                       # Occupied blocks per task id
system.cpu0.dcache.tags.occ_task_id_percent::1024            1                       # Percentage of cache occupancy per task id
system.cpu0.dcache.tags.tag_accesses         71206319                       # Number of tag accesses
system.cpu0.dcache.tags.data_accesses        71206319                       # Number of data accesses
system.cpu0.dcache.tags.power_state.pwrStateResidencyTicks::UNDEFINED  57637769500                       # Cumulative time (in ticks) in various power states
system.cpu0.power_state.pwrStateResidencyTicks::ON  57637769500                       # Cumulative time (in ticks) in various power states
system.cpu0.itb.walker.power_state.pwrStateResidencyTicks::UNDEFINED  57637769500                       # Cumulative time (in ticks) in various power states
system.cpu1.icache.demand_hits::.cpu1.inst      3736337                       # number of demand (read+write) hits
system.cpu1.icache.demand_hits::total         3736337                       # number of demand (read+write) hits
system.cpu1.icache.overall_hits::.cpu1.inst      3736337                       # number of overall hits
system.cpu1.icache.overall_hits::total        3736337                       # number of overall hits
system.cpu1.icache.demand_misses::.cpu1.inst       991511                       # number of demand (read+write) misses
system.cpu1.icache.demand_misses::total        991511                       # number of demand (read+write) misses
system.cpu1.icache.overall_misses::.cpu1.inst       991511                       # number of overall misses
system.cpu1.icache.overall_misses::total       991511                       # number of overall misses
system.cpu1.icache.demand_miss_latency::.cpu1.inst  36400704500                       # number of demand (read+write) miss cycles
system.cpu1.icache.demand_miss_latency::total  36400704500                       # number of demand (read+write) miss cycles
system.cpu1.icache.overall_miss_latency::.cpu1.inst  36400704500                       # number of overall miss cycles
system.cpu1.icache.overall_miss_latency::total  36400704500                       # number of overall miss cycles
system.cpu1.icache.demand_accesses::.cpu1.inst      4727848                       # number of demand (read+write) accesses
system.cpu1.icache.demand_accesses::total      4727848                       # number of demand (read+write) accesses
system.cpu1.icache.overall_accesses::.cpu1.inst      4727848                       # number of overall (read+write) accesses
system.cpu1.icache.overall_accesses::total      4727848                       # number of overall (read+write) accesses
system.cpu1.icache.demand_miss_rate::.cpu1.inst     0.209717                       # miss rate for demand accesses
system.cpu1.icache.demand_miss_rate::total     0.209717                       # miss rate for demand accesses
system.cpu1.icache.overall_miss_rate::.cpu1.inst     0.209717                       # miss rate for overall accesses
system.cpu1.icache.overall_miss_rate::total     0.209717                       # miss rate for overall accesses
system.cpu1.icache.demand_avg_miss_latency::.cpu1.inst 36712.355687                       # average overall miss latency
system.cpu1.icache.demand_avg_miss_latency::total 36712.355687                       # average overall miss latency
system.cpu1.icache.overall_avg_miss_latency::.cpu1.inst 36712.355687                       # average overall miss latency
system.cpu1.icache.overall_avg_miss_latency::total 36712.355687                       # average overall miss latency
system.cpu1.icache.blocked_cycles::no_mshrs            0                       # number of cycles access was blocked
system.cpu1.icache.blocked_cycles::no_targets            0                       # number of cycles access was blocked
system.cpu1.icache.blocked::no_mshrs                0                       # number of cycles access was blocked
system.cpu1.icache.blocked::no_targets              0                       # number of cycles access was blocked
system.cpu1.icache.avg_blocked_cycles::no_mshrs          nan                       # average number of cycles each access was blocked
system.cpu1.icache.avg_blocked_cycles::no_targets          nan                       # average number of cycles each access was blocked
system.cpu1.icache.writebacks::.writebacks       991495                       # number of writebacks
system.cpu1.icache.writebacks::total           991495                       # number of writebacks
system.cpu1.icache.demand_mshr_misses::.cpu1.inst       991511                       # number of demand (read+write) MSHR misses
system.cpu1.icache.demand_mshr_misses::total       991511                       # number of demand (read+write) MSHR misses
system.cpu1.icache.overall_mshr_misses::.cpu1.inst       991511                       # number of overall MSHR misses
system.cpu1.icache.overall_mshr_misses::total       991511                       # number of overall MSHR misses
system.cpu1.icache.demand_mshr_miss_latency::.cpu1.inst  35409193500                       # number of demand (read+write) MSHR miss cycles
system.cpu1.icache.demand_mshr_miss_latency::total  35409193500                       # number of demand (read+write) MSHR miss cycles
system.cpu1.icache.overall_mshr_miss_latency::.cpu1.inst  35409193500                       # number of overall MSHR miss cycles
system.cpu1.icache.overall_mshr_miss_latency::total  35409193500                       # number of overall MSHR miss cycles
system.cpu1.icache.demand_mshr_miss_rate::.cpu1.inst     0.209717                       # mshr miss rate for demand accesses
system.cpu1.icache.demand_mshr_miss_rate::total     0.209717                       # mshr miss rate for demand accesses
system.cpu1.icache.overall_mshr_miss_rate::.cpu1.inst     0.209717                       # mshr miss rate for overall accesses
system.cpu1.icache.overall_mshr_miss_rate::total     0.209717                       # mshr miss rate for overall accesses
system.cpu1.icache.demand_avg_mshr_miss_latency::.cpu1.inst 35712.355687                       # average overall mshr miss latency
system.cpu1.icache.demand_avg_mshr_miss_latency::total 35712.355687                       # average overall mshr miss latency
system.cpu1.icache.overall_avg_mshr_miss_latency::.cpu1.inst 35712.355687                       # average overall mshr miss latency
system.cpu1.icache.overall_avg_mshr_miss_latency::total 35712.355687                       # average overall mshr miss latency
system.cpu1.icache.replacements                991495                       # number of replacements
system.cpu1.icache.ReadReq_hits::.cpu1.inst      3736337                       # number of ReadReq hits
system.cpu1.icache.ReadReq_hits::total        3736337                       # number of ReadReq hits
system.cpu1.icache.ReadReq_misses::.cpu1.inst       991511                       # number of ReadReq misses
system.cpu1.icache.ReadReq_misses::total       991511                       # number of ReadReq misses
system.cpu1.icache.ReadReq_miss_latency::.cpu1.inst  36400704500                       # number of ReadReq miss cycles
system.cpu1.icache.ReadReq_miss_latency::total  36400704500                       # number of ReadReq miss cycles
system.cpu1.icache.ReadReq_accesses::.cpu1.inst      4727848                       # number of ReadReq accesses(hits+misses)
system.cpu1.icache.ReadReq_accesses::total      4727848                       # number of ReadReq accesses(hits+misses)
system.cpu1.icache.ReadReq_miss_rate::.cpu1.inst     0.209717                       # miss rate for ReadReq accesses
system.cpu1.icache.ReadReq_miss_rate::total     0.209717                       # miss rate for ReadReq accesses
system.cpu1.icache.ReadReq_avg_miss_latency::.cpu1.inst 36712.355687                       # average ReadReq miss latency
system.cpu1.icache.ReadReq_avg_miss_latency::total 36712.355687                       # average ReadReq miss latency
system.cpu1.icache.ReadReq_mshr_misses::.cpu1.inst       991511                       # number of ReadReq MSHR misses
system.cpu1.icache.ReadReq_mshr_misses::total       991511                       # number of ReadReq MSHR misses
system.cpu1.icache.ReadReq_mshr_miss_latency::.cpu1.inst  35409193500                       # number of ReadReq MSHR miss cycles
system.cpu1.icache.ReadReq_mshr_miss_latency::total  35409193500                       # number of ReadReq MSHR miss cycles
system.cpu1.icache.ReadReq_mshr_miss_rate::.cpu1.inst     0.209717                       # mshr miss rate for ReadReq accesses
system.cpu1.icache.ReadReq_mshr_miss_rate::total     0.209717                       # mshr miss rate for ReadReq accesses
system.cpu1.icache.ReadReq_avg_mshr_miss_latency::.cpu1.inst 35712.355687                       # average ReadReq mshr miss latency
system.cpu1.icache.ReadReq_avg_mshr_miss_latency::total 35712.355687                       # average ReadReq mshr miss latency
system.cpu1.icache.power_state.pwrStateResidencyTicks::UNDEFINED  57637769500                       # Cumulative time (in ticks) in various power states
system.cpu1.icache.tags.tagsinuse           15.999752                       # Cycle average of tags in use
system.cpu1.icache.tags.total_refs            4727848                       # Total number of references to valid blocks.
system.cpu1.icache.tags.sampled_refs           991511                       # Sample count of references to valid blocks.
system.cpu1.icache.tags.avg_refs             4.768326                       # Average number of references to valid blocks.
system.cpu1.icache.tags.warmup_cycle            94500                       # Cycle when the warmup percentage was hit.
system.cpu1.icache.tags.occ_blocks::.cpu1.inst    15.999752                       # Average occupied blocks per requestor
system.cpu1.icache.tags.occ_percent::.cpu1.inst     0.999985                       # Average percentage of cache occupancy
system.cpu1.icache.tags.occ_percent::total     0.999985                       # Average percentage of cache occupancy
system.cpu1.icache.tags.occ_task_id_blocks::1024           16                       # Occupied blocks per task id
system.cpu1.icache.tags.age_task_id_blocks_1024::0           16                       # Occupied blocks per task id
system.cpu1.icache.tags.occ_task_id_percent::1024            1                       # Percentage of cache occupancy per task id
system.cpu1.icache.tags.tag_accesses         38814295                       # Number of tag accesses
system.cpu1.icache.tags.data_accesses        38814295                       # Number of data accesses
system.cpu1.icache.tags.power_state.pwrStateResidencyTicks::UNDEFINED  57637769500                       # Cumulative time (in ticks) in various power states
system.cpu1.dtb.walker.power_state.pwrStateResidencyTicks::UNDEFINED  57637769500                       # Cumulative time (in ticks) in various power states
system.cpu1.interrupts.clk_domain.clock          8000                       # Clock period in ticks
system.cpu1.itb_walker_cache.blocked_cycles::no_mshrs            0                       # number of cycles access was blocked
system.cpu1.itb_walker_cache.blocked_cycles::no_targets            0                       # number of cycles access was blocked
system.cpu1.itb_walker_cache.blocked::no_mshrs            0                       # number of cycles access was blocked
system.cpu1.itb_walker_cache.blocked::no_targets            0                       # number of cycles access was blocked
system.cpu1.itb_walker_cache.avg_blocked_cycles::no_mshrs          nan                       # average number of cycles each access was blocked
system.cpu1.itb_walker_cache.avg_blocked_cycles::no_targets          nan                       # average number of cycles each access was blocked
system.cpu1.itb_walker_cache.replacements            0                       # number of replacements
system.cpu1.itb_walker_cache.power_state.pwrStateResidencyTicks::UNDEFINED  57637769500                       # Cumulative time (in ticks) in various power states
system.cpu1.itb_walker_cache.tags.tagsinuse            0                       # Cycle average of tags in use
system.cpu1.itb_walker_cache.tags.total_refs            0                       # Total number of references to valid blocks.
system.cpu1.itb_walker_cache.tags.sampled_refs            0                       # Sample count of references to valid blocks.
system.cpu1.itb_walker_cache.tags.avg_refs          nan                       # Average number of references to valid blocks.
system.cpu1.itb_walker_cache.tags.warmup_cycle            0                       # Cycle when the warmup percentage was hit.
system.cpu1.itb_walker_cache.tags.tag_accesses            0                       # Number of tag accesses
system.cpu1.itb_walker_cache.tags.data_accesses            0                       # Number of data accesses
system.cpu1.itb_walker_cache.tags.power_state.pwrStateResidencyTicks::UNDEFINED  57637769500                       # Cumulative time (in ticks) in various power states
system.cpu1.dtb_walker_cache.blocked_cycles::no_mshrs            0                       # number of cycles access was blocked
system.cpu1.dtb_walker_cache.blocked_cycles::no_targets            0                       # number of cycles access was blocked
system.cpu1.dtb_walker_cache.blocked::no_mshrs            0                       # number of cycles access was blocked
system.cpu1.dtb_walker_cache.blocked::no_targets            0                       # number of cycles access was blocked
system.cpu1.dtb_walker_cache.avg_blocked_cycles::no_mshrs          nan                       # average number of cycles each access was blocked
system.cpu1.dtb_walker_cache.avg_blocked_cycles::no_targets          nan                       # average number of cycles each access was blocked
system.cpu1.dtb_walker_cache.replacements            0                       # number of replacements
system.cpu1.dtb_walker_cache.power_state.pwrStateResidencyTicks::UNDEFINED  57637769500                       # Cumulative time (in ticks) in various power states
system.cpu1.dtb_walker_cache.tags.tagsinuse            0                       # Cycle average of tags in use
system.cpu1.dtb_walker_cache.tags.total_refs            0                       # Total number of references to valid blocks.
system.cpu1.dtb_walker_cache.tags.sampled_refs            0                       # Sample count of references to valid blocks.
system.cpu1.dtb_walker_cache.tags.avg_refs          nan                       # Average number of references to valid blocks.
system.cpu1.dtb_walker_cache.tags.warmup_cycle            0                       # Cycle when the warmup percentage was hit.
system.cpu1.dtb_walker_cache.tags.tag_accesses            0                       # Number of tag accesses
system.cpu1.dtb_walker_cache.tags.data_accesses            0                       # Number of data accesses
system.cpu1.dtb_walker_cache.tags.power_state.pwrStateResidencyTicks::UNDEFINED  57637769500                       # Cumulative time (in ticks) in various power states
system.cpu1.dcache.demand_hits::.cpu1.data      2960448                       # number of demand (read+write) hits
system.cpu1.dcache.demand_hits::total         2960448                       # number of demand (read+write) hits
system.cpu1.dcache.overall_hits::.cpu1.data      2961429                       # number of overall hits
system.cpu1.dcache.overall_hits::total        2961429                       # number of overall hits
system.cpu1.dcache.demand_misses::.cpu1.data       426887                       # number of demand (read+write) misses
system.cpu1.dcache.demand_misses::total        426887                       # number of demand (read+write) misses
system.cpu1.dcache.overall_misses::.cpu1.data       427960                       # number of overall misses
system.cpu1.dcache.overall_misses::total       427960                       # number of overall misses
system.cpu1.dcache.demand_miss_latency::.cpu1.data  19942580000                       # number of demand (read+write) miss cycles
system.cpu1.dcache.demand_miss_latency::total  19942580000                       # number of demand (read+write) miss cycles
system.cpu1.dcache.overall_miss_latency::.cpu1.data  19942580000                       # number of overall miss cycles
system.cpu1.dcache.overall_miss_latency::total  19942580000                       # number of overall miss cycles
system.cpu1.dcache.demand_accesses::.cpu1.data      3387335                       # number of demand (read+write) accesses
system.cpu1.dcache.demand_accesses::total      3387335                       # number of demand (read+write) accesses
system.cpu1.dcache.overall_accesses::.cpu1.data      3389389                       # number of overall (read+write) accesses
system.cpu1.dcache.overall_accesses::total      3389389                       # number of overall (read+write) accesses
system.cpu1.dcache.demand_miss_rate::.cpu1.data     0.126024                       # miss rate for demand accesses
system.cpu1.dcache.demand_miss_rate::total     0.126024                       # miss rate for demand accesses
system.cpu1.dcache.overall_miss_rate::.cpu1.data     0.126265                       # miss rate for overall accesses
system.cpu1.dcache.overall_miss_rate::total     0.126265                       # miss rate for overall accesses
system.cpu1.dcache.demand_avg_miss_latency::.cpu1.data 46716.297287                       # average overall miss latency
system.cpu1.dcache.demand_avg_miss_latency::total 46716.297287                       # average overall miss latency
system.cpu1.dcache.overall_avg_miss_latency::.cpu1.data 46599.168147                       # average overall miss latency
system.cpu1.dcache.overall_avg_miss_latency::total 46599.168147                       # average overall miss latency
system.cpu1.dcache.blocked_cycles::no_mshrs           41                       # number of cycles access was blocked
system.cpu1.dcache.blocked_cycles::no_targets            0                       # number of cycles access was blocked
system.cpu1.dcache.blocked::no_mshrs                1                       # number of cycles access was blocked
system.cpu1.dcache.blocked::no_targets              0                       # number of cycles access was blocked
system.cpu1.dcache.avg_blocked_cycles::no_mshrs           41                       # average number of cycles each access was blocked
system.cpu1.dcache.avg_blocked_cycles::no_targets          nan                       # average number of cycles each access was blocked
system.cpu1.dcache.writebacks::.writebacks       163258                       # number of writebacks
system.cpu1.dcache.writebacks::total           163258                       # number of writebacks
system.cpu1.dcache.demand_mshr_hits::.cpu1.data        72654                       # number of demand (read+write) MSHR hits
system.cpu1.dcache.demand_mshr_hits::total        72654                       # number of demand (read+write) MSHR hits
system.cpu1.dcache.overall_mshr_hits::.cpu1.data        72654                       # number of overall MSHR hits
system.cpu1.dcache.overall_mshr_hits::total        72654                       # number of overall MSHR hits
system.cpu1.dcache.demand_mshr_misses::.cpu1.data       354233                       # number of demand (read+write) MSHR misses
system.cpu1.dcache.demand_mshr_misses::total       354233                       # number of demand (read+write) MSHR misses
system.cpu1.dcache.overall_mshr_misses::.cpu1.data       355271                       # number of overall MSHR misses
system.cpu1.dcache.overall_mshr_misses::total       355271                       # number of overall MSHR misses
system.cpu1.dcache.demand_mshr_miss_latency::.cpu1.data  16504619500                       # number of demand (read+write) MSHR miss cycles
system.cpu1.dcache.demand_mshr_miss_latency::total  16504619500                       # number of demand (read+write) MSHR miss cycles
system.cpu1.dcache.overall_mshr_miss_latency::.cpu1.data  16590797500                       # number of overall MSHR miss cycles
system.cpu1.dcache.overall_mshr_miss_latency::total  16590797500                       # number of overall MSHR miss cycles
system.cpu1.dcache.demand_mshr_miss_rate::.cpu1.data     0.104576                       # mshr miss rate for demand accesses
system.cpu1.dcache.demand_mshr_miss_rate::total     0.104576                       # mshr miss rate for demand accesses
system.cpu1.dcache.overall_mshr_miss_rate::.cpu1.data     0.104819                       # mshr miss rate for overall accesses
system.cpu1.dcache.overall_mshr_miss_rate::total     0.104819                       # mshr miss rate for overall accesses
system.cpu1.dcache.demand_avg_mshr_miss_latency::.cpu1.data 46592.552077                       # average overall mshr miss latency
system.cpu1.dcache.demand_avg_mshr_miss_latency::total 46592.552077                       # average overall mshr miss latency
system.cpu1.dcache.overall_avg_mshr_miss_latency::.cpu1.data 46698.991756                       # average overall mshr miss latency
system.cpu1.dcache.overall_avg_mshr_miss_latency::total 46698.991756                       # average overall mshr miss latency
system.cpu1.dcache.replacements                355254                       # number of replacements
system.cpu1.dcache.ReadReq_hits::.cpu1.data      1852487                       # number of ReadReq hits
system.cpu1.dcache.ReadReq_hits::total        1852487                       # number of ReadReq hits
system.cpu1.dcache.ReadReq_misses::.cpu1.data       272614                       # number of ReadReq misses
system.cpu1.dcache.ReadReq_misses::total       272614                       # number of ReadReq misses
system.cpu1.dcache.ReadReq_miss_latency::.cpu1.data  13938114500                       # number of ReadReq miss cycles
system.cpu1.dcache.ReadReq_miss_latency::total  13938114500                       # number of ReadReq miss cycles
system.cpu1.dcache.ReadReq_accesses::.cpu1.data      2125101                       # number of ReadReq accesses(hits+misses)
system.cpu1.dcache.ReadReq_accesses::total      2125101                       # number of ReadReq accesses(hits+misses)
system.cpu1.dcache.ReadReq_miss_rate::.cpu1.data     0.128283                       # miss rate for ReadReq accesses
system.cpu1.dcache.ReadReq_miss_rate::total     0.128283                       # miss rate for ReadReq accesses
system.cpu1.dcache.ReadReq_avg_miss_latency::.cpu1.data 51127.654853                       # average ReadReq miss latency
system.cpu1.dcache.ReadReq_avg_miss_latency::total 51127.654853                       # average ReadReq miss latency
system.cpu1.dcache.ReadReq_mshr_hits::.cpu1.data        11651                       # number of ReadReq MSHR hits
system.cpu1.dcache.ReadReq_mshr_hits::total        11651                       # number of ReadReq MSHR hits
system.cpu1.dcache.ReadReq_mshr_misses::.cpu1.data       260963                       # number of ReadReq MSHR misses
system.cpu1.dcache.ReadReq_mshr_misses::total       260963                       # number of ReadReq MSHR misses
system.cpu1.dcache.ReadReq_mshr_miss_latency::.cpu1.data  13002036000                       # number of ReadReq MSHR miss cycles
system.cpu1.dcache.ReadReq_mshr_miss_latency::total  13002036000                       # number of ReadReq MSHR miss cycles
system.cpu1.dcache.ReadReq_mshr_miss_rate::.cpu1.data     0.122800                       # mshr miss rate for ReadReq accesses
system.cpu1.dcache.ReadReq_mshr_miss_rate::total     0.122800                       # mshr miss rate for ReadReq accesses
system.cpu1.dcache.ReadReq_avg_mshr_miss_latency::.cpu1.data 49823.292957                       # average ReadReq mshr miss latency
system.cpu1.dcache.ReadReq_avg_mshr_miss_latency::total 49823.292957                       # average ReadReq mshr miss latency
system.cpu1.dcache.WriteReq_hits::.cpu1.data      1107961                       # number of WriteReq hits
system.cpu1.dcache.WriteReq_hits::total       1107961                       # number of WriteReq hits
system.cpu1.dcache.WriteReq_misses::.cpu1.data       154273                       # number of WriteReq misses
system.cpu1.dcache.WriteReq_misses::total       154273                       # number of WriteReq misses
system.cpu1.dcache.WriteReq_miss_latency::.cpu1.data   6004465500                       # number of WriteReq miss cycles
system.cpu1.dcache.WriteReq_miss_latency::total   6004465500                       # number of WriteReq miss cycles
system.cpu1.dcache.WriteReq_accesses::.cpu1.data      1262234                       # number of WriteReq accesses(hits+misses)
system.cpu1.dcache.WriteReq_accesses::total      1262234                       # number of WriteReq accesses(hits+misses)
[...]
system.mem_ctrls.bytesPerActivate::stdev   399.684566                       # Bytes accessed per row activation
system.mem_ctrls.bytesPerActivate::0-127       125143     35.14%     35.14% # Bytes accessed per row activation
system.mem_ctrls.bytesPerActivate::128-255        62819     17.64%     52.78% # Bytes accessed per row activation
system.mem_ctrls.bytesPerActivate::256-383        27141      7.62%     60.40% # Bytes accessed per row activation
system.mem_ctrls.bytesPerActivate::384-511        15369      4.32%     64.71% # Bytes accessed per row activation
system.mem_ctrls.bytesPerActivate::512-639        11514      3.23%     67.95% # Bytes accessed per row activation
system.mem_ctrls.bytesPerActivate::640-767        10230      2.87%     70.82% # Bytes accessed per row activation
system.mem_ctrls.bytesPerActivate::768-895         9327      2.62%     73.44% # Bytes accessed per row activation
system.mem_ctrls.bytesPerActivate::896-1023         8392      2.36%     75.79% # Bytes accessed per row activation
system.mem_ctrls.bytesPerActivate::1024-1151        86210     24.21%    100.00% # Bytes accessed per row activation
system.mem_ctrls.bytesPerActivate::total       356145                       # Bytes accessed per row activation
system.mem_ctrls.rdPerTurnAround::samples        58987                       # Reads before turning the bus around for writes
system.mem_ctrls.rdPerTurnAround::mean      23.138590                       # Reads before turning the bus around for writes
system.mem_ctrls.rdPerTurnAround::gmean     22.664930                       # Reads before turning the bus around for writes
system.mem_ctrls.rdPerTurnAround::stdev      8.411516                       # Reads before turning the bus around for writes
system.mem_ctrls.rdPerTurnAround::0-63          58923     99.89%     99.89% # Reads before turning the bus around for writes
system.mem_ctrls.rdPerTurnAround::64-127           34      0.06%     99.95% # Reads before turning the bus around for writes
system.mem_ctrls.rdPerTurnAround::128-191           13      0.02%     99.97% # Reads before turning the bus around for writes
system.mem_ctrls.rdPerTurnAround::192-255            7      0.01%     99.98% # Reads before turning the bus around for writes
system.mem_ctrls.rdPerTurnAround::256-319            5      0.01%     99.99% # Reads before turning the bus around for writes
system.mem_ctrls.rdPerTurnAround::384-447            1      0.00%     99.99% # Reads before turning the bus around for writes
system.mem_ctrls.rdPerTurnAround::448-511            1      0.00%     99.99% # Reads before turning the bus around for writes
system.mem_ctrls.rdPerTurnAround::640-703            2      0.00%    100.00% # Reads before turning the bus around for writes
system.mem_ctrls.rdPerTurnAround::1024-1087            1      0.00%    100.00% # Reads before turning the bus around for writes
system.mem_ctrls.rdPerTurnAround::total         58987                       # Reads before turning the bus around for writes
system.mem_ctrls.wrPerTurnAround::samples        58987                       # Writes before turning the bus around for reads
system.mem_ctrls.wrPerTurnAround::mean      16.057674                       # Writes before turning the bus around for reads
system.mem_ctrls.wrPerTurnAround::gmean     16.053046                       # Writes before turning the bus around for reads
system.mem_ctrls.wrPerTurnAround::stdev      0.409716                       # Writes before turning the bus around for reads
system.mem_ctrls.wrPerTurnAround::16            57598     97.65%     97.65% # Writes before turning the bus around for reads
system.mem_ctrls.wrPerTurnAround::17              414      0.70%     98.35% # Writes before turning the bus around for reads
system.mem_ctrls.wrPerTurnAround::18              210      0.36%     98.70% # Writes before turning the bus around for reads
system.mem_ctrls.wrPerTurnAround::19              515      0.87%     99.58% # Writes before turning the bus around for reads
system.mem_ctrls.wrPerTurnAround::20              228      0.39%     99.96% # Writes before turning the bus around for reads
system.mem_ctrls.wrPerTurnAround::21               21      0.04%    100.00% # Writes before turning the bus around for reads
system.mem_ctrls.wrPerTurnAround::22                1      0.00%    100.00% # Writes before turning the bus around for reads
system.mem_ctrls.wrPerTurnAround::total         58987                       # Writes before turning the bus around for reads
system.mem_ctrls.bytesReadDRAM               87352256                       # Total number of bytes read from DRAM
system.mem_ctrls.bytesReadWrQ                   83584                       # Total number of bytes read from write queue
system.mem_ctrls.bytesWritten                60620416                       # Total number of bytes written to DRAM
system.mem_ctrls.bytesReadSys                87435840                       # Total read bytes from the system interface side
system.mem_ctrls.bytesWrittenSys             60625664                       # Total written bytes from the system interface side
system.mem_ctrls.avgRdBW                      1515.54                       # Average DRAM read bandwidth in MiByte/s
system.mem_ctrls.avgWrBW                      1051.75                       # Average achieved write bandwidth in MiByte/s
system.mem_ctrls.avgRdBWSys                   1516.99                       # Average system read bandwidth in MiByte/s
system.mem_ctrls.avgWrBWSys                   1051.84                       # Average system write bandwidth in MiByte/s
system.mem_ctrls.peakBW                      12800.00                       # Theoretical peak bandwidth in MiByte/s
system.mem_ctrls.busUtil                        20.06                       # Data bus utilization in percentage
system.mem_ctrls.busUtilRead                    11.84                       # Data bus utilization in percentage for reads
system.mem_ctrls.busUtilWrite                    8.22                       # Data bus utilization in percentage for writes
system.mem_ctrls.totGap                   57637731000                       # Total gap between requests
system.mem_ctrls.avgGap                      24914.07                       # Average gap between requests
system.mem_ctrls.masterReadBytes::.cpu0.inst       112832                       # Per-master bytes read from memory
system.mem_ctrls.masterReadBytes::.cpu0.data     58354944                       # Per-master bytes read from memory
system.mem_ctrls.masterReadBytes::.cpu1.inst     19625920                       # Per-master bytes read from memory
system.mem_ctrls.masterReadBytes::.cpu1.data      9258560                       # Per-master bytes read from memory
system.mem_ctrls.masterWriteBytes::.writebacks     60620416                       # Per-master bytes write to memory
system.mem_ctrls.masterReadRate::.cpu0.inst 1957605.247024696320                       # Per-master bytes read from memory rate (Bytes/sec)
system.mem_ctrls.masterReadRate::.cpu0.data 1012442787.190090775490                       # Per-master bytes read from memory rate (Bytes/sec)
system.mem_ctrls.masterReadRate::.cpu1.inst 340504502.000203192234                       # Per-master bytes read from memory rate (Bytes/sec)
system.mem_ctrls.masterReadRate::.cpu1.data 160633558.174037247896                       # Per-master bytes read from memory rate (Bytes/sec)
system.mem_ctrls.masterWriteRate::.writebacks 1051748124.985995531082                       # Per-master bytes write to memory rate (Bytes/sec)
system.mem_ctrls.masterReadAccesses::.cpu0.inst         1763                       # Per-master read serviced memory accesses
system.mem_ctrls.masterReadAccesses::.cpu0.data       911845                       # Per-master read serviced memory accesses
system.mem_ctrls.masterReadAccesses::.cpu1.inst       306655                       # Per-master read serviced memory accesses
system.mem_ctrls.masterReadAccesses::.cpu1.data       145922                       # Per-master read serviced memory accesses
system.mem_ctrls.masterWriteAccesses::.writebacks       947276                       # Per-master write serviced memory accesses
system.mem_ctrls.masterReadTotalLat::.cpu0.inst     53050500                       # Per-master read total memory access latency
system.mem_ctrls.masterReadTotalLat::.cpu0.data  30057369750                       # Per-master read total memory access latency
system.mem_ctrls.masterReadTotalLat::.cpu1.inst  10813318250                       # Per-master read total memory access latency
system.mem_ctrls.masterReadTotalLat::.cpu1.data   6305325250                       # Per-master read total memory access latency
system.mem_ctrls.masterWriteTotalLat::.writebacks 1446863053750                       # Per-master write total memory access latency
system.mem_ctrls.masterReadAvgLat::.cpu0.inst     30091.04                       # Per-master read average memory access latency
system.mem_ctrls.masterReadAvgLat::.cpu0.data     32963.24                       # Per-master read average memory access latency
system.mem_ctrls.masterReadAvgLat::.cpu1.inst     35262.16                       # Per-master read average memory access latency
system.mem_ctrls.masterReadAvgLat::.cpu1.data     43210.24                       # Per-master read average memory access latency
system.mem_ctrls.masterWriteAvgLat::.writebacks   1527393.34                       # Per-master write average memory access latency
system.mem_ctrls.pageHitRate                    84.60                       # Row buffer hit rate, read and write combined
system.mem_ctrls.rank1.actEnergy           1202333160                       # Energy for activate commands per rank (pJ)
system.mem_ctrls.rank1.preEnergy            639043845                       # Energy for precharge commands per rank (pJ)
system.mem_ctrls.rank1.readEnergy          4625391960                       # Energy for read commands per rank (pJ)
system.mem_ctrls.rank1.writeEnergy         2460875040                       # Energy for write commands per rank (pJ)
system.mem_ctrls.rank1.refreshEnergy     4549565280.000001                       # Energy for refresh commands per rank (pJ)
system.mem_ctrls.rank1.actBackEnergy      25645746090                       # Energy for active background per rank (pJ)
system.mem_ctrls.rank1.preBackEnergy        536485920                       # Energy for precharge background per rank (pJ)
system.mem_ctrls.rank1.actPowerDownEnergy            0                       # Energy for active power-down per rank (pJ)
system.mem_ctrls.rank1.prePowerDownEnergy            0                       # Energy for precharge power-down per rank (pJ)
system.mem_ctrls.rank1.selfRefreshEnergy            0                       # Energy for self refresh per rank (pJ)
system.mem_ctrls.rank1.totalEnergy        39659441295                       # Total energy per rank (pJ)
system.mem_ctrls.rank1.averagePower        688.080778                       # Core power per rank (mW)
system.mem_ctrls.rank1.totalIdleTime                0                       # Total Idle time Per DRAM Rank
system.mem_ctrls.rank1.memoryStateTime::IDLE   1135041000                       # Time in different power states
system.mem_ctrls.rank1.memoryStateTime::REF   1924520000                       # Time in different power states
system.mem_ctrls.rank1.memoryStateTime::SREF            0                       # Time in different power states
system.mem_ctrls.rank1.memoryStateTime::PRE_PDN            0                       # Time in different power states
system.mem_ctrls.rank1.memoryStateTime::ACT  54578208500                       # Time in different power states
system.mem_ctrls.rank1.memoryStateTime::ACT_PDN            0                       # Time in different power states
system.mem_ctrls.rank0.actEnergy           1340592120                       # Energy for activate commands per rank (pJ)
system.mem_ctrls.rank0.preEnergy            712526430                       # Energy for precharge commands per rank (pJ)
system.mem_ctrls.rank0.readEnergy          5119844100                       # Energy for read commands per rank (pJ)
system.mem_ctrls.rank0.writeEnergy         2483477640                       # Energy for write commands per rank (pJ)
system.mem_ctrls.rank0.refreshEnergy     4549565280.000001                       # Energy for refresh commands per rank (pJ)
system.mem_ctrls.rank0.actBackEnergy      25869175260                       # Energy for active background per rank (pJ)
system.mem_ctrls.rank0.preBackEnergy        348335040                       # Energy for precharge background per rank (pJ)
system.mem_ctrls.rank0.actPowerDownEnergy            0                       # Energy for active power-down per rank (pJ)
system.mem_ctrls.rank0.prePowerDownEnergy            0                       # Energy for precharge power-down per rank (pJ)
system.mem_ctrls.rank0.selfRefreshEnergy            0                       # Energy for self refresh per rank (pJ)
system.mem_ctrls.rank0.totalEnergy        40423515870                       # Total energy per rank (pJ)
system.mem_ctrls.rank0.averagePower        701.337269                       # Core power per rank (mW)
system.mem_ctrls.rank0.totalIdleTime                0                       # Total Idle time Per DRAM Rank
system.mem_ctrls.rank0.memoryStateTime::IDLE    664257750                       # Time in different power states
system.mem_ctrls.rank0.memoryStateTime::REF   1924520000                       # Time in different power states
system.mem_ctrls.rank0.memoryStateTime::SREF            0                       # Time in different power states
system.mem_ctrls.rank0.memoryStateTime::PRE_PDN            0                       # Time in different power states
system.mem_ctrls.rank0.memoryStateTime::ACT  55048991750                       # Time in different power states
system.mem_ctrls.rank0.memoryStateTime::ACT_PDN            0                       # Time in different power states
system.mem_ctrls.power_state.pwrStateResidencyTicks::UNDEFINED  57637769500                       # Cumulative time (in ticks) in various power states
system.cpu_clk_domain.clock                       500                       # Clock period in ticks
system.tol2bus.trans_dist::ReadResp           1273621                       # Transaction distribution
system.tol2bus.trans_dist::WritebackDirty      2023999                       # Transaction distribution
system.tol2bus.trans_dist::WritebackClean      1002576                       # Transaction distribution
system.tol2bus.trans_dist::CleanEvict          626200                       # Transaction distribution
system.tol2bus.trans_dist::ReadExReq          1003841                       # Transaction distribution
system.tol2bus.trans_dist::ReadExResp         1003840                       # Transaction distribution
system.tol2bus.trans_dist::ReadCleanReq       1002608                       # Transaction distribution
system.tol2bus.trans_dist::ReadSharedReq       271014                       # Transaction distribution
system.tol2bus.pkt_count_system.cpu0.icache.mem_side::system.l2.cpu_side        33275                       # Packet count per connected master and slave (bytes)
system.tol2bus.pkt_count_system.cpu0.dcache.mem_side::system.l2.cpu_side      2758734                       # Packet count per connected master and slave (bytes)
system.tol2bus.pkt_count_system.cpu1.icache.mem_side::system.l2.cpu_side      2974517                       # Packet count per connected master and slave (bytes)
system.tol2bus.pkt_count_system.cpu1.dcache.mem_side::system.l2.cpu_side      1065795                       # Packet count per connected master and slave (bytes)
system.tol2bus.pkt_count::total               6832321                       # Packet count per connected master and slave (bytes)
system.tol2bus.pkt_size_system.cpu0.icache.mem_side::system.l2.cpu_side      1419392                       # Cumulative packet size per connected master and slave (bytes)
system.tol2bus.pkt_size_system.cpu0.dcache.mem_side::system.l2.cpu_side    117315072                       # Cumulative packet size per connected master and slave (bytes)
system.tol2bus.pkt_size_system.cpu1.icache.mem_side::system.l2.cpu_side    126912384                       # Cumulative packet size per connected master and slave (bytes)
system.tol2bus.pkt_size_system.cpu1.dcache.mem_side::system.l2.cpu_side     33185792                       # Cumulative packet size per connected master and slave (bytes)
system.tol2bus.pkt_size::total              278832640                       # Cumulative packet size per connected master and slave (bytes)
system.tol2bus.snoops                         1375378                       # Total snoops (count)
system.tol2bus.snoopTraffic                  60625664                       # Total snoop traffic (bytes)
system.tol2bus.snoop_fanout::samples          3652841                       # Request fanout histogram
system.tol2bus.snoop_fanout::mean            0.009979                       # Request fanout histogram
system.tol2bus.snoop_fanout::stdev           0.099394                       # Request fanout histogram
system.tol2bus.snoop_fanout::underflows             0      0.00%      0.00% # Request fanout histogram
system.tol2bus.snoop_fanout::0                3616390     99.00%     99.00% # Request fanout histogram
system.tol2bus.snoop_fanout::1                  36451      1.00%    100.00% # Request fanout histogram
system.tol2bus.snoop_fanout::2                      0      0.00%    100.00% # Request fanout histogram
system.tol2bus.snoop_fanout::3                      0      0.00%    100.00% # Request fanout histogram
system.tol2bus.snoop_fanout::4                      0      0.00%    100.00% # Request fanout histogram
system.tol2bus.snoop_fanout::5                      0      0.00%    100.00% # Request fanout histogram
system.tol2bus.snoop_fanout::6                      0      0.00%    100.00% # Request fanout histogram
system.tol2bus.snoop_fanout::7                      0      0.00%    100.00% # Request fanout histogram
system.tol2bus.snoop_fanout::8                      0      0.00%    100.00% # Request fanout histogram
system.tol2bus.snoop_fanout::overflows              0      0.00%    100.00% # Request fanout histogram
system.tol2bus.snoop_fanout::min_value              0                       # Request fanout histogram
system.tol2bus.snoop_fanout::max_value              1                       # Request fanout histogram
system.tol2bus.snoop_fanout::total            3652841                       # Request fanout histogram
system.tol2bus.reqLayer0.occupancy         4356729000                       # Layer occupancy (ticks)
system.tol2bus.reqLayer0.utilization              7.6                       # Layer utilization (%)
system.tol2bus.respLayer5.occupancy         532976856                       # Layer occupancy (ticks)
system.tol2bus.respLayer5.utilization             0.9                       # Layer utilization (%)
system.tol2bus.respLayer4.occupancy        1487291949                       # Layer occupancy (ticks)
system.tol2bus.respLayer4.utilization             2.6                       # Layer utilization (%)
system.tol2bus.respLayer1.occupancy        1383620491                       # Layer occupancy (ticks)
system.tol2bus.respLayer1.utilization             2.4                       # Layer utilization (%)
system.tol2bus.respLayer0.occupancy          16652486                       # Layer occupancy (ticks)
system.tol2bus.respLayer0.utilization             0.0                       # Layer utilization (%)
system.tol2bus.power_state.pwrStateResidencyTicks::UNDEFINED  57637769500                       # Cumulative time (in ticks) in various power states

---------- End Simulation Statistics   ----------
